 ****** HSPICE -- C-2009.09-SP1 32-BIT (Nov 23 2009) winnt ******               
  Copyright (C) 2009 Synopsys, Inc. All Rights Reserved.                        
  Unpublished-rights reserved under US copyright laws.
  This program is protected by law and is subject to the 
  terms and conditions of the license agreement from Synopsys.
  Use of this program is your acceptance to be bound by the 
  license agreement. HSPICE is the trademark of Synopsys, Inc.
  Input File: c:\users\g533zw\desktop\lab616_meeting\simulation_dcim\4x4\dcim_4x
  lic:  
  lic: FLEXlm: v8.5b 
  lic: USER:   G533ZW               HOSTNAME: ASUS-NB 
  lic: HOSTID: "009337e97ba3 a036bc64b6c1 009337e97b9f 009337e97ba0 029337e97b9f
 "
  lic: Using FLEXlm license file: 
  lic: 27000@DESKTOP-6565KSO 
  lic: Checkout 1 hspice 
  lic: License/Maintenance for hspice will expire on 31-dec-2050/2050.12 
  lic: NODE LOCKED license on hostid "009337e97ba3 a036bc64b6c1 009337e97b9f 009
 3
  lic:   
 Init: read install configuration file: C:\synopsys\Hspice_C-2009.09-SP1\meta.cfg
1****** HSPICE -- C-2009.09-SP1 32-BIT (Nov 23 2009) winnt ******               
 ******  
 *** 4x4 nor2x1 dcim_array ***

  ******  circuit name directory
 circuit number to circuit name directory
   number circuitname                     definition         multiplier
        0 main circuit
        1 xdff0.                          dff                1.00 
        2 xdff1.                          dff                1.00 
        3 xdriver0.                       driver             1.00 
        4 xdriver1.                       driver             1.00 
        5 xdriver2.                       driver             1.00 
        6 xdriver3.                       driver             1.00 
        7 xsram0_0.                       sram_nor           1.00 
        8 xsram0_1.                       sram_nor           1.00 
        9 xsram0_2.                       sram_nor           1.00 
       10 xsram0_3.                       sram_nor           1.00 
       11 xsram1_0.                       sram_nor           1.00 
       12 xsram1_1.                       sram_nor           1.00 
       13 xsram1_2.                       sram_nor           1.00 
       14 xsram1_3.                       sram_nor           1.00 
       15 xsram2_0.                       sram_nor           1.00 
       16 xsram2_1.                       sram_nor           1.00 
       17 xsram2_2.                       sram_nor           1.00 
       18 xsram2_3.                       sram_nor           1.00 
       19 xsram3_0.                       sram_nor           1.00 
       20 xsram3_1.                       sram_nor           1.00 
       21 xsram3_2.                       sram_nor           1.00 
       22 xsram3_3.                       sram_nor           1.00 
       23 xdecoder2to4.                   decoder2to4        1.00 
       24 xpc0.                           precharge_circuit
                                                                 1.00 
       25 xpc1.                           precharge_circuit
                                                                 1.00 
       26 xpc2.                           precharge_circuit
                                                                 1.00 
       27 xpc3.                           precharge_circuit
                                                                 1.00 
       28 xinv0_0.                        inv                1.00 
       29 xbuf0_1.                        buf                2.00 
       30 xinv1_0.                        inv                1.00 
       31 xbuf1_1.                        buf                2.00 
       32 xinv2_0.                        inv                1.00 
       33 xbuf2_1.                        buf                2.00 
       34 xinv3_0.                        inv                1.00 
       35 xbuf3_1.                        buf                2.00 
       36 xnor0_0.                        nor2x1             1.00 
       37 xnor0_1.                        nor2x1             1.00 
       38 xnor0_2.                        nor2x1             1.00 
       39 xnor0_3.                        nor2x1             1.00 
       40 xnor1_0.                        nor2x1             1.00 
       41 xnor1_1.                        nor2x1             1.00 
       42 xnor1_2.                        nor2x1             1.00 
       43 xnor1_3.                        nor2x1             1.00 
       44 xnor2_0.                        nor2x1             1.00 
       45 xnor2_1.                        nor2x1             1.00 
       46 xnor2_2.                        nor2x1             1.00 
       47 xnor2_3.                        nor2x1             1.00 
       48 xnor3_0.                        nor2x1             1.00 
       49 xnor3_1.                        nor2x1             1.00 
       50 xnor3_2.                        nor2x1             1.00 
       51 xnor3_3.                        nor2x1             1.00 
       52 xdff4.                          dff                1.00 
       53 xdff5.                          dff                1.00 
       54 xdff6.                          dff                1.00 
       55 xdff7.                          dff                1.00 
       56 xbuf0.                          buf                1.00 
       57 xbuf1.                          buf                2.00 
       58 xwe0.                           write_circuit      1.00 
       59 xwe1.                           write_circuit      1.00 
       60 xwe2.                           write_circuit      1.00 
       61 xwe3.                           write_circuit      1.00 
       62 xbuf2.                          buf                1.00 
       63 xbuf3.                          buf                2.00 
       64 xsa0.                           sense_amplifier    1.00 
       65 xsa1.                           sense_amplifier    1.00 
       66 xsa2.                           sense_amplifier    1.00 
       67 xsa3.                           sense_amplifier    1.00 
       68 xdff_inb0.                      dff                1.00 
       69 xdff_inb1.                      dff                1.00 
       70 xdff_inb2.                      dff                1.00 
       71 xdff_inb3.                      dff                1.00 
       72 xdff0.xnand3_1.                 nand3_1            1.00 
       73 xdff0.xnand1.                   nand               1.00 
       74 xdff0.xnand2.                   nand               1.00 
       75 xdff0.xnand3.                   nand               1.00 
       76 xdff0.xnand4.                   nand               1.00 
       77 xdff0.xnand5.                   nand               1.00 
       78 xdff1.xnand3_1.                 nand3_1            1.00 
       79 xdff1.xnand1.                   nand               1.00 
       80 xdff1.xnand2.                   nand               1.00 
       81 xdff1.xnand3.                   nand               1.00 
       82 xdff1.xnand4.                   nand               1.00 
       83 xdff1.xnand5.                   nand               1.00 
       84 xdriver0.xbuf0.                 buf                1.00 
       85 xdriver1.xbuf0.                 buf                1.00 
       86 xdriver2.xbuf0.                 buf                1.00 
       87 xdriver3.xbuf0.                 buf                1.00 
       88 xdecoder2to4.xinv1.             inv                1.00 
       89 xdecoder2to4.xinv2.             inv                1.00 
       90 xdecoder2to4.xand1.             and2               1.00 
       91 xdecoder2to4.xand2.             and2               1.00 
       92 xdecoder2to4.xand3.             and2               1.00 
       93 xdecoder2to4.xand4.             and2               1.00 
       94 xdecoder2to4.xand5.             and2               1.00 
       95 xdecoder2to4.xand6.             and2               1.00 
       96 xdecoder2to4.xand7.             and2               1.00 
       97 xdecoder2to4.xand8.             and2               1.00 
       98 xbuf0_1.xinv11.                 inv                2.00 
       99 xbuf0_1.xinv12.                 inv                2.00 
      100 xbuf1_1.xinv11.                 inv                2.00 
      101 xbuf1_1.xinv12.                 inv                2.00 
      102 xbuf2_1.xinv11.                 inv                2.00 
      103 xbuf2_1.xinv12.                 inv                2.00 
      104 xbuf3_1.xinv11.                 inv                2.00 
      105 xbuf3_1.xinv12.                 inv                2.00 
      106 xdff4.xnand3_1.                 nand3_1            1.00 
      107 xdff4.xnand1.                   nand               1.00 
      108 xdff4.xnand2.                   nand               1.00 
      109 xdff4.xnand3.                   nand               1.00 
      110 xdff4.xnand4.                   nand               1.00 
      111 xdff4.xnand5.                   nand               1.00 
      112 xdff5.xnand3_1.                 nand3_1            1.00 
      113 xdff5.xnand1.                   nand               1.00 
      114 xdff5.xnand2.                   nand               1.00 
      115 xdff5.xnand3.                   nand               1.00 
      116 xdff5.xnand4.                   nand               1.00 
      117 xdff5.xnand5.                   nand               1.00 
      118 xdff6.xnand3_1.                 nand3_1            1.00 
      119 xdff6.xnand1.                   nand               1.00 
      120 xdff6.xnand2.                   nand               1.00 
      121 xdff6.xnand3.                   nand               1.00 
      122 xdff6.xnand4.                   nand               1.00 
      123 xdff6.xnand5.                   nand               1.00 
      124 xdff7.xnand3_1.                 nand3_1            1.00 
      125 xdff7.xnand1.                   nand               1.00 
      126 xdff7.xnand2.                   nand               1.00 
      127 xdff7.xnand3.                   nand               1.00 
      128 xdff7.xnand4.                   nand               1.00 
      129 xdff7.xnand5.                   nand               1.00 
      130 xbuf0.xinv11.                   inv                1.00 
      131 xbuf0.xinv12.                   inv                1.00 
      132 xbuf1.xinv11.                   inv                2.00 
      133 xbuf1.xinv12.                   inv                2.00 
      134 xwe0.xinv.                      inv                1.00 
      135 xwe1.xinv.                      inv                1.00 
      136 xwe2.xinv.                      inv                1.00 
      137 xwe3.xinv.                      inv                1.00 
      138 xbuf2.xinv11.                   inv                1.00 
      139 xbuf2.xinv12.                   inv                1.00 
      140 xbuf3.xinv11.                   inv                2.00 
      141 xbuf3.xinv12.                   inv                2.00 
      142 xdff_inb0.xnand3_1.             nand3_1            1.00 
      143 xdff_inb0.xnand1.               nand               1.00 
      144 xdff_inb0.xnand2.               nand               1.00 
      145 xdff_inb0.xnand3.               nand               1.00 
      146 xdff_inb0.xnand4.               nand               1.00 
      147 xdff_inb0.xnand5.               nand               1.00 
      148 xdff_inb1.xnand3_1.             nand3_1            1.00 
      149 xdff_inb1.xnand1.               nand               1.00 
      150 xdff_inb1.xnand2.               nand               1.00 
      151 xdff_inb1.xnand3.               nand               1.00 
      152 xdff_inb1.xnand4.               nand               1.00 
      153 xdff_inb1.xnand5.               nand               1.00 
      154 xdff_inb2.xnand3_1.             nand3_1            1.00 
      155 xdff_inb2.xnand1.               nand               1.00 
      156 xdff_inb2.xnand2.               nand               1.00 
      157 xdff_inb2.xnand3.               nand               1.00 
      158 xdff_inb2.xnand4.               nand               1.00 
      159 xdff_inb2.xnand5.               nand               1.00 
      160 xdff_inb3.xnand3_1.             nand3_1            1.00 
      161 xdff_inb3.xnand1.               nand               1.00 
      162 xdff_inb3.xnand2.               nand               1.00 
      163 xdff_inb3.xnand3.               nand               1.00 
      164 xdff_inb3.xnand4.               nand               1.00 
      165 xdff_inb3.xnand5.               nand               1.00 
      166 xdriver0.xbuf0.xinv11.          inv                1.00 
      167 xdriver0.xbuf0.xinv12.          inv                1.00 
      168 xdriver1.xbuf0.xinv11.          inv                1.00 
      169 xdriver1.xbuf0.xinv12.          inv                1.00 
      170 xdriver2.xbuf0.xinv11.          inv                1.00 
      171 xdriver2.xbuf0.xinv12.          inv                1.00 
      172 xdriver3.xbuf0.xinv11.          inv                1.00 
      173 xdriver3.xbuf0.xinv12.          inv                1.00 
      174 xdecoder2to4.xand1.xinv.        inv                1.00 
      175 xdecoder2to4.xand2.xinv.        inv                1.00 
      176 xdecoder2to4.xand3.xinv.        inv                1.00 
      177 xdecoder2to4.xand4.xinv.        inv                1.00 
      178 xdecoder2to4.xand5.xinv.        inv                1.00 
      179 xdecoder2to4.xand6.xinv.        inv                1.00 
      180 xdecoder2to4.xand7.xinv.        inv                1.00 
      181 xdecoder2to4.xand8.xinv.        inv                1.00 
  **warning** (c:\users\g533zw\desktop\lab616_meeting\simulation_dcim\4x4\dcim_4x4_tt_nor2x1\dcim_4x4_nor2x1_tt_1.sp:336) dc voltage reset to initial transient source value              in source        0:vclk0               new dc=  0.0000D+00
 

 
 **warning**  no dc path to ground from node        0:inb0             defined in subckt 0               now it is connected with gdcpath


      
 **diagnostic** set option symb=1 internally to help for convergence.
 *****************************************************************
 ******  option summary
 ******
 runlvl  = 3         bypass  = 2         
  Opening plot unit= 79
 file=c:\users\g533zw\desktop\lab616_meeting\simulation_dcim\4x4\dcim_4x4_tt_no

1****** HSPICE -- C-2009.09-SP1 32-BIT (Nov 23 2009) winnt ******               
 ******  
 *** 4x4 nor2x1 dcim_array ***

  ******  operating point information tnom=  25.000 temp=  27.000 *****
 ***** operating point status is all       simulation time is     0.     
      node    =voltage        node    =voltage        node    =voltage

 +  0:a0      =   0.        0:a1      =   0.        0:addr0   = 747.8380m
 +  0:addr0_ba= 747.8380m   0:addr1   = 747.8380m   0:addr1_ba= 747.8380m
 +  0:b0_0    =   1.8000    0:b0_1    =   1.8000    0:b0_2    =   1.8000 
 +  0:b0_3    =   1.8000    0:b1_0    =   1.8000    0:b1_1    =   1.8000 
 +  0:b1_2    =   1.8000    0:b1_3    =   1.8000    0:b2_0    =   1.8000 
 +  0:b2_1    =   1.8000    0:b2_2    =   1.8000    0:b2_3    =   1.8000 
 +  0:b3_0    =   1.8000    0:b3_1    =   1.8000    0:b3_2    =   1.8000 
 +  0:b3_3    =   1.8000    0:bl0     =   1.8000    0:bl1     =   1.8000 
 +  0:bl2     =   1.8000    0:bl3     =   1.8000    0:blb0    =   1.8000 
 +  0:blb1    =   1.8000    0:blb2    =   1.8000    0:blb3    =   1.8000 
 +  0:clk0    =   0.        0:data0   = 747.8380m   0:data0_ba= 747.8380m
 +  0:data0_in=   0.        0:data1   = 747.8380m   0:data1_ba= 747.8380m
 +  0:data1_in=   0.        0:data2   = 747.8380m   0:data2_ba= 747.8380m
 +  0:data2_in=   0.        0:data3   = 747.8380m   0:data3_ba= 747.8380m
 +  0:data3_in=   0.        0:inb0    =   0.        0:inb0_0  = 747.8380m
 +  0:inb0_0_b= 747.8380m   0:inb0_1  =   1.6998    0:inb0_2  =   1.8000 
 +  0:inb1    =   0.        0:inb1_0  = 747.8380m   0:inb1_0_b= 747.8380m
 +  0:inb1_1  =   1.6998    0:inb1_2  =   1.8000    0:inb2    =   0.     
 +  0:inb2_0  = 747.8380m   0:inb2_0_b= 747.8380m   0:inb2_1  =   1.6998 
 +  0:inb2_2  =   1.8000    0:inb3    =   0.        0:inb3_0  = 747.8380m
 +  0:inb3_0_b= 747.8380m   0:inb3_1  =   1.6998    0:inb3_2  =   1.8000 
 +  0:out0    =  12.7437n   0:out0_0  =   4.1452n   0:out0_1  =   4.1451n
 +  0:out0_2  =   4.1451n   0:out0_3  =   4.1451n   0:out1    =  12.7437n
 +  0:out1_0  =   4.1452n   0:out1_1  =   4.1451n   0:out1_2  =   4.1451n
 +  0:out1_3  =   4.1451n   0:out2    =  12.7437n   0:out2_0  =   4.1451n
 +  0:out2_1  =   4.1451n   0:out2_2  =   4.1451n   0:out2_3  =   4.1451n
 +  0:out3    =  12.7437n   0:out3_0  =   4.1451n   0:out3_1  =   4.1451n
 +  0:out3_2  =   4.1451n   0:out3_3  =   4.1451n   0:pc      =   0.     
 +  0:qb0_0   = 761.4809m   0:qb0_1   = 761.4809m   0:qb0_2   = 761.4809m
 +  0:qb0_3   = 761.4809m   0:qb1_0   = 761.4809m   0:qb1_1   = 761.4809m
 +  0:qb1_2   = 761.4809m   0:qb1_3   = 761.4809m   0:qb2_0   = 761.4809m
 +  0:qb2_1   = 761.4809m   0:qb2_2   = 761.4809m   0:qb2_3   = 761.4809m
 +  0:qb3_0   = 761.4809m   0:qb3_1   = 761.4809m   0:qb3_2   = 761.4809m
 +  0:qb3_3   = 761.4809m   0:rout0   =  72.3078n   0:rout1   =  72.3065n
 +  0:rout2   =  72.3155n   0:rout3   =  72.3125n   0:se      =   0.     
 +  0:se1     =  12.7437n   0:se_en   =  12.7437n   0:vdd     =   1.8000 
 +  0:vss     =   0.        0:we      =   0.        0:we1     =  12.7437n
 +  0:we_en   =  12.7437n   0:wl0     =  12.7437n   0:wl1     =  12.7437n
 +  0:wl2     =  12.7437n   0:wl3     =  12.7437n   1:n1      =   1.8000 
 +  1:n2      =  17.5088n   1:r       =   1.8000    1:s       =   1.8000 
 +  2:n1      =   1.8000    2:n2      =  17.5088n   2:r       =   1.8000 
 +  2:s       =   1.8000    7:q       = 761.4809m   8:q       = 761.4809m
 +  9:q       = 761.4809m  10:q       = 761.4809m  11:q       = 761.4809m
 + 12:q       = 761.4809m  13:q       = 761.4809m  14:q       = 761.4809m
 + 15:q       = 761.4809m  16:q       = 761.4809m  17:q       = 761.4809m
 + 18:q       = 761.4809m  19:q       = 761.4809m  20:q       = 761.4809m
 + 21:q       = 761.4809m  22:q       = 761.4809m  23:abar1   =   1.6998 
 + 23:abar2   =   1.6998   23:and_out1=   1.8000   23:and_out2=   4.1324m
 + 23:and_out3=   1.6668   23:and_out4= 106.2027n  29:out1    = 168.4356n
 + 31:out1    = 168.4356n  33:out1    = 168.4356n  35:out1    = 168.4356n
 + 36:hnet7   =   1.0138   37:hnet7   =   1.0138   38:hnet7   =   1.0138 
 + 39:hnet7   =   1.0138   40:hnet7   =   1.0138   41:hnet7   =   1.0138 
 + 42:hnet7   =   1.0138   43:hnet7   =   1.0138   44:hnet7   =   1.0138 
 + 45:hnet7   =   1.0138   46:hnet7   =   1.0138   47:hnet7   =   1.0138 
 + 48:hnet7   =   1.0138   49:hnet7   =   1.0138   50:hnet7   =   1.0138 
 + 51:hnet7   =   1.0138   52:n1      =   1.8000   52:n2      =  17.5088n
 + 52:r       =   1.8000   52:s       =   1.8000   53:n1      =   1.8000 
 + 53:n2      =  17.5088n  53:r       =   1.8000   53:s       =   1.8000 
 + 54:n1      =   1.8000   54:n2      =  17.5088n  54:r       =   1.8000 
 + 54:s       =   1.8000   55:n1      =   1.8000   55:n2      =  17.5088n
 + 55:r       =   1.8000   55:s       =   1.8000   56:out1    =   1.8000 
 + 57:out1    =   1.8000   58:data_bar=   1.6998   58:data_in = 175.9931n
 + 59:data_bar=   1.6998   59:data_in = 175.9931n  60:data_bar=   1.6998 
 + 60:data_in = 175.9931n  61:data_bar=   1.6998   61:data_in = 175.9931n
 + 62:out1    =   1.8000   63:out1    =   1.8000   64:a       = 900.0170m
 + 64:b       = 900.0170m  64:c       =   1.7314   64:d       = 734.8472m
 + 64:y       =   1.7314   65:a       = 900.0170m  65:b       = 900.0170m
 + 65:c       =   1.7314   65:d       = 734.8468m  65:y       =   1.7314 
 + 66:a       = 900.0170m  66:b       = 900.0170m  66:c       =   1.7314 
 + 66:d       = 734.8466m  66:y       =   1.7314   67:a       = 900.0170m
 + 67:b       = 900.0170m  67:c       =   1.7314   67:d       = 734.8469m
 + 67:y       =   1.7314   68:n1      =   1.8000   68:n2      =  17.5088n
 + 68:r       =   1.8000   68:s       =   1.8000   69:n1      =   1.8000 
 + 69:n2      =  17.5088n  69:r       =   1.8000   69:s       =   1.8000 
 + 70:n1      =   1.8000   70:n2      =  17.5088n  70:r       =   1.8000 
 + 70:s       =   1.8000   71:n1      =   1.8000   71:n2      =  17.5088n
 + 71:r       =   1.8000   71:s       =   1.8000   72:n1      =   1.4488 
 + 72:n2      =   6.2599n  73:n1      =   8.7544n  74:n1      =  82.8047m
 + 75:n1      =   1.7511   76:n1      = 690.2625m  77:n1      = 690.2625m
 + 78:n1      =   1.4488   78:n2      =   6.2599n  79:n1      =   8.7544n
 + 80:n1      =  82.8047m  81:n1      =   1.7511   82:n1      = 690.2625m
 + 83:n1      = 690.2625m  84:out1    =   1.8000   85:out1    =   1.8000 
 + 86:out1    =   1.8000   87:out1    =   1.8000   90:n1      = 172.7441n
 + 90:n2      =  86.3720n  91:n1      =   1.2808   91:n2      =  29.8614m
 + 92:n1      = 781.5693m  92:n2      = 668.9894m  93:n1      =   1.7170 
 + 93:n2      =  84.0647m  94:n1      =   1.8000   94:n2      =   7.2840n
 + 95:n1      =   1.8000   95:n2      =  42.1835m  96:n1      =   1.8000 
 + 96:n2      =   7.6605n  97:n1      =   1.8000   97:n2      =  45.8832m
 +106:n1      =   1.4488  106:n2      =   6.2599n 107:n1      =   8.7544n
 +108:n1      =  82.8047m 109:n1      =   1.7511  110:n1      = 690.2625m
 +111:n1      = 690.2625m 112:n1      =   1.4488  112:n2      =   6.2599n
 +113:n1      =   8.7544n 114:n1      =  82.8047m 115:n1      =   1.7511 
 +116:n1      = 690.2625m 117:n1      = 690.2625m 118:n1      =   1.4488 
 +118:n2      =   6.2599n 119:n1      =   8.7544n 120:n1      =  82.8047m
 +121:n1      =   1.7511  122:n1      = 690.2625m 123:n1      = 690.2625m
 +124:n1      =   1.4488  124:n2      =   6.2599n 125:n1      =   8.7544n
 +126:n1      =  82.8047m 127:n1      =   1.7511  128:n1      = 690.2625m
 +129:n1      = 690.2625m 142:n1      =   1.4488  142:n2      =   6.2599n
 +143:n1      =   8.7544n 144:n1      =  82.8046m 145:n1      =   1.7511 
 +146:n1      = 690.2625m 147:n1      = 690.2625m 148:n1      =   1.4488 
 +148:n2      =   6.2599n 149:n1      =   8.7544n 150:n1      =  82.8046m
 +151:n1      =   1.7511  152:n1      = 690.2625m 153:n1      = 690.2625m
 +154:n1      =   1.4488  154:n2      =   6.2599n 155:n1      =   8.7544n
 +156:n1      =  82.8046m 157:n1      =   1.7511  158:n1      = 690.2625m
 +159:n1      = 690.2625m 160:n1      =   1.4488  160:n2      =   6.2599n
 +161:n1      =   8.7544n 162:n1      =  82.8047m 163:n1      =   1.7511 
 +164:n1      = 690.2625m 165:n1      = 690.2625m


 maximum nodal capacitance=   2.117E-12         on node     0:vdd             

    nodal  capacitance table 

      node    =    cap        node    =    cap        node    =    cap

 +  0:a0      =   3.1592f   0:a1      =   3.1592f   0:addr0   =  24.9366f
 +  0:addr0_ba=   9.1804f   0:addr1   =  25.1080f   0:addr1_ba=   9.1804f
 +  0:b0_0    =   5.9089f   0:b0_1    =   5.9089f   0:b0_2    =   5.9089f
 +  0:b0_3    =   5.9089f   0:b1_0    =   5.9089f   0:b1_1    =   5.9089f
 +  0:b1_2    =   5.9089f   0:b1_3    =   5.9089f   0:b2_0    =   5.9089f
 +  0:b2_1    =   5.9089f   0:b2_2    =   5.9089f   0:b2_3    =   5.9089f
 +  0:b3_0    =   5.9089f   0:b3_1    =   5.9089f   0:b3_2    =   5.9089f
 +  0:b3_3    =   5.9089f   0:bl0     =  24.9174f   0:bl1     =  24.9174f
 +  0:bl2     =  24.9174f   0:bl3     =  24.9174f   0:blb0    =  23.9146f
 +  0:blb1    =  23.9146f   0:blb2    =  23.9146f   0:blb3    =  23.9146f
 +  0:clk0    =  63.1840f   0:data0   =  17.7915f   0:data0_ba=   9.1804f
 +  0:data0_in=   3.1592f   0:data1   =  17.7915f   0:data1_ba=   9.1804f
 +  0:data1_in=   3.1592f   0:data2   =  17.7915f   0:data2_ba=   9.1804f
 +  0:data2_in=   3.1592f   0:data3   =  17.7915f   0:data3_ba=   9.1804f
 +  0:data3_in=   3.1592f   0:inb0    =   3.1592f   0:inb0_0  =  17.7915f
 +  0:inb0_0_b=   9.1804f   0:inb0_1  =  22.8355f   0:inb0_2  =  27.4745f
 +  0:inb1    =   3.1592f   0:inb1_0  =  17.7915f   0:inb1_0_b=   9.1804f
 +  0:inb1_1  =  22.8355f   0:inb1_2  =  27.4745f   0:inb2    =   3.1592f
 +  0:inb2_0  =  17.7915f   0:inb2_0_b=   9.1804f   0:inb2_1  =  22.8355f
 +  0:inb2_2  =  27.4745f   0:inb3    =   3.1592f   0:inb3_0  =  17.7915f
 +  0:inb3_0_b=   9.1804f   0:inb3_1  =  22.8355f   0:inb3_2  =  27.4745f
 +  0:out0    =  15.5002f   0:out0_0  =   5.3308f   0:out0_1  =   5.3308f
 +  0:out0_2  =   5.3308f   0:out0_3  =   5.3308f   0:out1    =  15.5002f
 +  0:out1_0  =   5.3308f   0:out1_1  =   5.3308f   0:out1_2  =   5.3308f
 +  0:out1_3  =   5.3308f   0:out2    =  15.5002f   0:out2_0  =   5.3308f
 +  0:out2_1  =   5.3308f   0:out2_2  =   5.3308f   0:out2_3  =   5.3308f
 +  0:out3    =  15.5002f   0:out3_0  =   5.3308f   0:out3_1  =   5.3308f
 +  0:out3_2  =   5.3308f   0:out3_3  =   5.3308f   0:pc      =  36.5552f
 +  0:qb0_0   =   5.2700f   0:qb0_1   =   5.2700f   0:qb0_2   =   5.2700f
 +  0:qb0_3   =   5.2700f   0:qb1_0   =   5.2700f   0:qb1_1   =   5.2700f
 +  0:qb1_2   =   5.2700f   0:qb1_3   =   5.2700f   0:qb2_0   =   5.2700f
 +  0:qb2_1   =   5.2700f   0:qb2_2   =   5.2700f   0:qb2_3   =   5.2700f
 +  0:qb3_0   =   5.2700f   0:qb3_1   =   5.2700f   0:qb3_2   =   5.2700f
 +  0:qb3_3   =   5.2700f   0:rout0   =   7.2387f   0:rout1   =   7.2387f
 +  0:rout2   =   7.2387f   0:rout3   =   7.2387f   0:se      =   8.2572f
 +  0:se1     =  23.7575f   0:se_en   =  19.1500f   0:vdd     =   2.1171p
 +  0:vss     =   1.1094p   0:we      =   8.2572f   0:we1     =  23.7575f
 +  0:we_en   =  33.1422f   0:wl0     =  12.8146f   0:wl1     =  12.8146f
 +  0:wl2     =  12.8146f   0:wl3     =  12.8146f   1:n1      =  13.0293f
 +  1:n2      =   8.9206f   1:r       =  13.3757f   1:s       =  16.7883f
 +  2:n1      =  13.0293f   2:n2      =   8.9206f   2:r       =  13.3757f
 +  2:s       =  16.7883f   7:q       =   2.9667f   8:q       =   2.9667f
 +  9:q       =   2.9667f  10:q       =   2.9667f  11:q       =   2.9667f
 + 12:q       =   2.9667f  13:q       =   2.9667f  14:q       =   2.9667f
 + 15:q       =   2.9667f  16:q       =   2.9667f  17:q       =   2.9667f
 + 18:q       =   2.9667f  19:q       =   2.9667f  20:q       =   2.9667f
 + 21:q       =   2.9667f  22:q       =   2.9667f  23:abar1   =  17.4397f
 + 23:abar2   =  17.5796f  23:and_out1=  16.8446f  23:and_out2=  10.3426f
 + 23:and_out3=  13.3258f  23:and_out4=  10.3970f  29:out1    =  30.9877f
 + 31:out1    =  30.9877f  33:out1    =  30.9877f  35:out1    =  30.9877f
 + 36:hnet7   =   3.1807f  37:hnet7   =   3.1807f  38:hnet7   =   3.1807f
 + 39:hnet7   =   3.1807f  40:hnet7   =   3.1807f  41:hnet7   =   3.1807f
 + 42:hnet7   =   3.1807f  43:hnet7   =   3.1807f  44:hnet7   =   3.1807f
 + 45:hnet7   =   3.1807f  46:hnet7   =   3.1807f  47:hnet7   =   3.1807f
 + 48:hnet7   =   3.1807f  49:hnet7   =   3.1807f  50:hnet7   =   3.1807f
 + 51:hnet7   =   3.1807f  52:n1      =  13.0293f  52:n2      =   8.9206f
 + 52:r       =  13.3757f  52:s       =  16.7883f  53:n1      =  13.0293f
 + 53:n2      =   8.9206f  53:r       =  13.3757f  53:s       =  16.7883f
 + 54:n1      =  13.0293f  54:n2      =   8.9206f  54:r       =  13.3757f
 + 54:s       =  16.7883f  55:n1      =  13.0293f  55:n2      =   8.9206f
 + 55:r       =  13.3757f  55:s       =  16.7883f  56:out1    =  19.5171f
 + 57:out1    =  39.0341f  58:data_bar=  18.2215f  58:data_in =   8.7033f
 + 59:data_bar=  18.2215f  59:data_in =   8.7033f  60:data_bar=  18.2215f
 + 60:data_in =   8.7033f  61:data_bar=  18.2215f  61:data_in =   8.7033f
 + 62:out1    =  19.5171f  63:out1    =  39.0341f  64:a       =   2.2629f
 + 64:b       =   2.2629f  64:c       =   4.7731f  64:d       =   3.6995f
 + 64:y       =   8.4346f  65:a       =   2.2629f  65:b       =   2.2629f
 + 65:c       =   4.7731f  65:d       =   3.6995f  65:y       =   8.4346f
 + 66:a       =   2.2629f  66:b       =   2.2629f  66:c       =   4.7731f
 + 66:d       =   3.6995f  66:y       =   8.4346f  67:a       =   2.2629f
 + 67:b       =   2.2629f  67:c       =   4.7731f  67:d       =   3.6995f
 + 67:y       =   8.4346f  68:n1      =  13.0293f  68:n2      =   8.9206f
 + 68:r       =  13.3757f  68:s       =  16.7883f  69:n1      =  13.0293f
 + 69:n2      =   8.9206f  69:r       =  13.3757f  69:s       =  16.7883f
 + 70:n1      =  13.0293f  70:n2      =   8.9206f  70:r       =  13.3757f
 + 70:s       =  16.7883f  71:n1      =  13.0293f  71:n2      =   8.9206f
 + 71:r       =  13.3757f  71:s       =  16.7883f  72:n1      =   2.2533f
 + 72:n2      =   4.8595f  73:n1      =   9.0346f  74:n1      =   5.1825f
 + 75:n1      =   5.1706f  76:n1      =   6.7454f  77:n1      =   6.7454f
 + 78:n1      =   2.2533f  78:n2      =   4.8595f  79:n1      =   9.0346f
 + 80:n1      =   5.1825f  81:n1      =   5.1706f  82:n1      =   6.7454f
 + 83:n1      =   6.7454f  84:out1    =  19.5171f  85:out1    =  19.5171f
 + 86:out1    =  19.5171f  87:out1    =  19.5171f  90:n1      =  13.9964f
 + 90:n2      =   6.3520f  91:n1      =  10.9287f  91:n2      =   5.8249f
 + 92:n1      =  13.1221f  92:n2      =   3.6206f  93:n1      =  13.1461f
 + 93:n2      =   4.4041f  94:n1      =  12.2431f  94:n2      =   4.8595f
 + 95:n1      =  14.3323f  95:n2      =   2.8904f  96:n1      =  12.2431f
 + 96:n2      =   4.8508f  97:n1      =  14.3325f  97:n2      =   2.8868f
 +106:n1      =   2.2533f 106:n2      =   4.8595f 107:n1      =   9.0346f
 +108:n1      =   5.1825f 109:n1      =   5.1706f 110:n1      =   6.7454f
 +111:n1      =   6.7454f 112:n1      =   2.2533f 112:n2      =   4.8595f
 +113:n1      =   9.0346f 114:n1      =   5.1825f 115:n1      =   5.1706f
 +116:n1      =   6.7454f 117:n1      =   6.7454f 118:n1      =   2.2533f
 +118:n2      =   4.8595f 119:n1      =   9.0346f 120:n1      =   5.1825f
 +121:n1      =   5.1706f 122:n1      =   6.7454f 123:n1      =   6.7454f
 +124:n1      =   2.2533f 124:n2      =   4.8595f 125:n1      =   9.0346f
 +126:n1      =   5.1825f 127:n1      =   5.1706f 128:n1      =   6.7454f
 +129:n1      =   6.7454f 142:n1      =   2.2533f 142:n2      =   4.8595f
 +143:n1      =   9.0346f 144:n1      =   5.1825f 145:n1      =   5.1706f
 +146:n1      =   6.7454f 147:n1      =   6.7454f 148:n1      =   2.2533f
 +148:n2      =   4.8595f 149:n1      =   9.0346f 150:n1      =   5.1825f
 +151:n1      =   5.1706f 152:n1      =   6.7454f 153:n1      =   6.7454f
 +154:n1      =   2.2533f 154:n2      =   4.8595f 155:n1      =   9.0346f
 +156:n1      =   5.1825f 157:n1      =   5.1706f 158:n1      =   6.7454f
 +159:n1      =   6.7454f 160:n1      =   2.2533f 160:n2      =   4.8595f
 +161:n1      =   9.0346f 162:n1      =   5.1825f 163:n1      =   5.1706f
 +164:n1      =   6.7454f 165:n1      =   6.7454f

 

 ****  voltage sources

 subckt                                                                   
 element    0:vdd        0:vss        0:vclk0      0:vpc        0:vwe     
  volts        1.8000       0.           0.           0.           0.     
  current     -3.0689m      3.0689m      0.           0.           0.     
  power        5.5240m      0.           0.           0.           0.     

 subckt                                                                   
 element    0:vse        0:vinb3      0:va1        0:va0        0:vdata0_i
  volts        0.           0.           0.           0.           0.     
  current      0.           0.           0.           0.           0.     
  power        0.           0.           0.           0.           0.     

 subckt                                         
 element    0:vdata1_i   0:vdata2_i   0:vdata3_i
  volts        0.           0.           0.     
  current      0.           0.           0.     
  power        0.           0.           0.     

     total voltage source power dissipation=    5.5240m       watts



 **** resistors

 subckt                                                                   
 element    0:r0_0       0:r0_1       0:r0_2       0:r0_3       0:r1_0    
  r value      1.0000       1.0000       1.0000       1.0000       1.0000 
  v drop    -222.0446a      0.           0.           0.        -222.0446a
  current   -222.0446a      0.           0.           0.        -222.0446a
  power        0.           0.           0.           0.           0.     

 subckt                                                                   
 element    0:r1_1       0:r1_2       0:r1_3       0:r2_0       0:r2_1    
  r value      1.0000       1.0000       1.0000       1.0000       1.0000 
  v drop       0.           0.           0.        -222.0446a      0.     
  current      0.           0.           0.        -222.0446a      0.     
  power        0.           0.           0.           0.           0.     

 subckt                                                                   
 element    0:r2_2       0:r2_3       0:r3_0       0:r3_1       0:r3_2    
  r value      1.0000       1.0000       1.0000       1.0000       1.0000 
  v drop       0.           0.           0.           0.           0.     
  current      0.           0.           0.           0.           0.     
  power        0.           0.           0.           0.           0.     

 subckt               
 element    0:r3_3    
  r value      1.0000 
  v drop       0.     
  current      0.     
  power        0.     



 **** mosfets


 subckt     xsram0_0     xsram0_0     xsram0_0     xsram0_0     xsram0_0  
 element    7:mn1        7:mn2        7:mn3        7:mn4        7:mp1     
 model      0:nch.16     0:nch.16     0:nch.12     0:nch.12     0:pch.16  
 region       Saturati     Saturati       Cutoff       Cutoff     Saturati
  id          26.5031u     26.5031u   -2.713e-24   -2.713e-24    -26.5031u
  ibs       -1.606e-20   -1.606e-20     -4.1508a     -4.1508a    9.593e-21
  ibd         -7.7446f     -7.7446f     -4.1508a     -4.1508a      3.0732a
  vgs        761.4809m    761.4809m     -1.8000      -1.8000      -1.0385 
  vds        761.4809m    761.4809m     -1.0385      -1.0385      -1.0385 
  vbs          0.           0.          -1.8000      -1.8000       0.     
  vth        482.0276m    482.0276m    708.9859m    708.9859m   -505.9328m
  vdsat      201.2973m    201.2973m     44.7442m     44.7442m   -378.5818m
  vod        279.4534m    279.4534m     -2.5090      -2.5090    -532.5862m
  beta       811.8105u    811.8105u      1.8720m      1.8720m    205.6498u
  gam eff      1.0565       1.0565       1.0443       1.0443     696.0800m
  gm         117.3079u    117.3079u    8.162e-23    8.162e-23     79.2952u
  gds          5.6842u      5.6842u    1.981e-24    1.981e-24      3.9619u
  gmb         32.2156u     32.2156u    1.869e-23    1.869e-23     26.5773u
  cdtot      378.1278a    378.1278a    792.0341a    792.0341a    651.5913a
  cgtot      377.7685a    377.7685a    696.4486a    696.4486a    767.1899a
  cstot      674.6116a    674.6116a    703.8624a    703.8624a      1.3259f
  cbtot      766.1844a    766.1844a      1.3215f      1.3215f      1.3595f
  cgs        249.6505a    249.6505a    217.7010a    217.7010a    589.7068a
  cgd         78.1514a     78.1514a    217.7300a    217.7300a    139.6905a



 subckt     xsram0_0     xsram0_1     xsram0_1     xsram0_1     xsram0_1  
 element    7:mp2        8:mn1        8:mn2        8:mn3        8:mn4     
 model      0:pch.16     0:nch.16     0:nch.16     0:nch.12     0:nch.12  
 region       Saturati     Saturati     Saturati       Cutoff       Cutoff
  id         -26.5031u     26.5031u     26.5031u   -2.713e-24   -2.713e-24
  ibs        9.593e-21   -1.606e-20   -1.606e-20     -4.1508a     -4.1508a
  ibd          3.0732a     -7.7446f     -7.7446f     -4.1508a     -4.1508a
  vgs         -1.0385     761.4809m    761.4809m     -1.8000      -1.8000 
  vds         -1.0385     761.4809m    761.4809m     -1.0385      -1.0385 
  vbs          0.           0.           0.          -1.8000      -1.8000 
  vth       -505.9328m    482.0276m    482.0276m    708.9859m    708.9859m
  vdsat     -378.5818m    201.2973m    201.2973m     44.7442m     44.7442m
  vod       -532.5862m    279.4534m    279.4534m     -2.5090      -2.5090 
  beta       205.6498u    811.8105u    811.8105u      1.8720m      1.8720m
  gam eff    696.0800m      1.0565       1.0565       1.0443       1.0443 
  gm          79.2952u    117.3079u    117.3079u    8.162e-23    8.162e-23
  gds          3.9619u      5.6842u      5.6842u    1.981e-24    1.981e-24
  gmb         26.5773u     32.2156u     32.2156u    1.869e-23    1.869e-23
  cdtot      651.5913a    378.1278a    378.1278a    792.0341a    792.0341a
  cgtot      767.1899a    377.7685a    377.7685a    696.4486a    696.4486a
  cstot        1.3259f    674.6116a    674.6116a    703.8624a    703.8624a
  cbtot        1.3595f    766.1844a    766.1844a      1.3215f      1.3215f
  cgs        589.7068a    249.6505a    249.6505a    217.7010a    217.7010a
  cgd        139.6905a     78.1514a     78.1514a    217.7300a    217.7300a



 subckt     xsram0_1     xsram0_1     xsram0_2     xsram0_2     xsram0_2  
 element    8:mp1        8:mp2        9:mn1        9:mn2        9:mn3     
 model      0:pch.16     0:pch.16     0:nch.16     0:nch.16     0:nch.12  
 region       Saturati     Saturati     Saturati     Saturati       Cutoff
  id         -26.5031u    -26.5031u     26.5031u     26.5031u   -2.713e-24
  ibs        9.593e-21    9.593e-21   -1.606e-20   -1.606e-20     -4.1508a
  ibd          3.0732a      3.0732a     -7.7446f     -7.7446f     -4.1508a
  vgs         -1.0385      -1.0385     761.4809m    761.4809m     -1.8000 
  vds         -1.0385      -1.0385     761.4809m    761.4809m     -1.0385 
  vbs          0.           0.           0.           0.          -1.8000 
  vth       -505.9328m   -505.9328m    482.0276m    482.0276m    708.9859m
  vdsat     -378.5818m   -378.5818m    201.2973m    201.2973m     44.7442m
  vod       -532.5862m   -532.5862m    279.4534m    279.4534m     -2.5090 
  beta       205.6498u    205.6498u    811.8105u    811.8105u      1.8720m
  gam eff    696.0800m    696.0800m      1.0565       1.0565       1.0443 
  gm          79.2952u     79.2952u    117.3079u    117.3079u    8.162e-23
  gds          3.9619u      3.9619u      5.6842u      5.6842u    1.981e-24
  gmb         26.5773u     26.5773u     32.2156u     32.2156u    1.869e-23
  cdtot      651.5913a    651.5913a    378.1278a    378.1278a    792.0341a
  cgtot      767.1899a    767.1899a    377.7685a    377.7685a    696.4486a
  cstot        1.3259f      1.3259f    674.6116a    674.6116a    703.8624a
  cbtot        1.3595f      1.3595f    766.1844a    766.1844a      1.3215f
  cgs        589.7068a    589.7068a    249.6505a    249.6505a    217.7010a
  cgd        139.6905a    139.6905a     78.1514a     78.1514a    217.7300a



 subckt     xsram0_2     xsram0_2     xsram0_2     xsram0_3     xsram0_3  
 element    9:mn4        9:mp1        9:mp2       10:mn1       10:mn2     
 model      0:nch.12     0:pch.16     0:pch.16     0:nch.16     0:nch.16  
 region         Cutoff     Saturati     Saturati     Saturati     Saturati
  id        -2.713e-24    -26.5031u    -26.5031u     26.5031u     26.5031u
  ibs         -4.1508a    9.593e-21    9.593e-21   -1.606e-20   -1.606e-20
  ibd         -4.1508a      3.0732a      3.0732a     -7.7446f     -7.7446f
  vgs         -1.8000      -1.0385      -1.0385     761.4809m    761.4809m
  vds         -1.0385      -1.0385      -1.0385     761.4809m    761.4809m
  vbs         -1.8000       0.           0.           0.           0.     
  vth        708.9859m   -505.9328m   -505.9328m    482.0276m    482.0276m
  vdsat       44.7442m   -378.5818m   -378.5818m    201.2973m    201.2973m
  vod         -2.5090    -532.5862m   -532.5862m    279.4534m    279.4534m
  beta         1.8720m    205.6498u    205.6498u    811.8105u    811.8105u
  gam eff      1.0443     696.0800m    696.0800m      1.0565       1.0565 
  gm         8.162e-23     79.2952u     79.2952u    117.3079u    117.3079u
  gds        1.981e-24      3.9619u      3.9619u      5.6842u      5.6842u
  gmb        1.869e-23     26.5773u     26.5773u     32.2156u     32.2156u
  cdtot      792.0341a    651.5913a    651.5913a    378.1278a    378.1278a
  cgtot      696.4486a    767.1899a    767.1899a    377.7685a    377.7685a
  cstot      703.8624a      1.3259f      1.3259f    674.6116a    674.6116a
  cbtot        1.3215f      1.3595f      1.3595f    766.1844a    766.1844a
  cgs        217.7010a    589.7068a    589.7068a    249.6505a    249.6505a
  cgd        217.7300a    139.6905a    139.6905a     78.1514a     78.1514a



 subckt     xsram0_3     xsram0_3     xsram0_3     xsram0_3     xsram1_0  
 element   10:mn3       10:mn4       10:mp1       10:mp2       11:mn1     
 model      0:nch.12     0:nch.12     0:pch.16     0:pch.16     0:nch.16  
 region         Cutoff       Cutoff     Saturati     Saturati     Saturati
  id        -2.713e-24   -2.713e-24    -26.5031u    -26.5031u     26.5031u
  ibs         -4.1508a     -4.1508a    9.593e-21    9.593e-21   -1.606e-20
  ibd         -4.1508a     -4.1508a      3.0732a      3.0732a     -7.7446f
  vgs         -1.8000      -1.8000      -1.0385      -1.0385     761.4809m
  vds         -1.0385      -1.0385      -1.0385      -1.0385     761.4809m
  vbs         -1.8000      -1.8000       0.           0.           0.     
  vth        708.9859m    708.9859m   -505.9328m   -505.9328m    482.0276m
  vdsat       44.7442m     44.7442m   -378.5818m   -378.5818m    201.2973m
  vod         -2.5090      -2.5090    -532.5862m   -532.5862m    279.4534m
  beta         1.8720m      1.8720m    205.6498u    205.6498u    811.8105u
  gam eff      1.0443       1.0443     696.0800m    696.0800m      1.0565 
  gm         8.162e-23    8.162e-23     79.2952u     79.2952u    117.3079u
  gds        1.981e-24    1.981e-24      3.9619u      3.9619u      5.6842u
  gmb        1.869e-23    1.869e-23     26.5773u     26.5773u     32.2156u
  cdtot      792.0341a    792.0341a    651.5913a    651.5913a    378.1278a
  cgtot      696.4486a    696.4486a    767.1899a    767.1899a    377.7685a
  cstot      703.8624a    703.8624a      1.3259f      1.3259f    674.6116a
  cbtot        1.3215f      1.3215f      1.3595f      1.3595f    766.1844a
  cgs        217.7010a    217.7010a    589.7068a    589.7068a    249.6505a
  cgd        217.7300a    217.7300a    139.6905a    139.6905a     78.1514a



 subckt     xsram1_0     xsram1_0     xsram1_0     xsram1_0     xsram1_0  
 element   11:mn2       11:mn3       11:mn4       11:mp1       11:mp2     
 model      0:nch.16     0:nch.12     0:nch.12     0:pch.16     0:pch.16  
 region       Saturati       Cutoff       Cutoff     Saturati     Saturati
  id          26.5031u   -2.713e-24   -2.713e-24    -26.5031u    -26.5031u
  ibs       -1.606e-20     -4.1508a     -4.1508a    9.593e-21    9.593e-21
  ibd         -7.7446f     -4.1508a     -4.1508a      3.0732a      3.0732a
  vgs        761.4809m     -1.8000      -1.8000      -1.0385      -1.0385 
  vds        761.4809m     -1.0385      -1.0385      -1.0385      -1.0385 
  vbs          0.          -1.8000      -1.8000       0.           0.     
  vth        482.0276m    708.9859m    708.9859m   -505.9328m   -505.9328m
  vdsat      201.2973m     44.7442m     44.7442m   -378.5818m   -378.5818m
  vod        279.4534m     -2.5090      -2.5090    -532.5862m   -532.5862m
  beta       811.8105u      1.8720m      1.8720m    205.6498u    205.6498u
  gam eff      1.0565       1.0443       1.0443     696.0800m    696.0800m
  gm         117.3079u    8.162e-23    8.162e-23     79.2952u     79.2952u
  gds          5.6842u    1.981e-24    1.981e-24      3.9619u      3.9619u
  gmb         32.2156u    1.869e-23    1.869e-23     26.5773u     26.5773u
  cdtot      378.1278a    792.0341a    792.0341a    651.5913a    651.5913a
  cgtot      377.7685a    696.4486a    696.4486a    767.1899a    767.1899a
  cstot      674.6116a    703.8624a    703.8624a      1.3259f      1.3259f
  cbtot      766.1844a      1.3215f      1.3215f      1.3595f      1.3595f
  cgs        249.6505a    217.7010a    217.7010a    589.7068a    589.7068a
  cgd         78.1514a    217.7300a    217.7300a    139.6905a    139.6905a



 subckt     xsram1_1     xsram1_1     xsram1_1     xsram1_1     xsram1_1  
 element   12:mn1       12:mn2       12:mn3       12:mn4       12:mp1     
 model      0:nch.16     0:nch.16     0:nch.12     0:nch.12     0:pch.16  
 region       Saturati     Saturati       Cutoff       Cutoff     Saturati
  id          26.5031u     26.5031u   -2.713e-24   -2.713e-24    -26.5031u
  ibs       -1.606e-20   -1.606e-20     -4.1508a     -4.1508a    9.593e-21
  ibd         -7.7446f     -7.7446f     -4.1508a     -4.1508a      3.0732a
  vgs        761.4809m    761.4809m     -1.8000      -1.8000      -1.0385 
  vds        761.4809m    761.4809m     -1.0385      -1.0385      -1.0385 
  vbs          0.           0.          -1.8000      -1.8000       0.     
  vth        482.0276m    482.0276m    708.9859m    708.9859m   -505.9328m
  vdsat      201.2973m    201.2973m     44.7442m     44.7442m   -378.5818m
  vod        279.4534m    279.4534m     -2.5090      -2.5090    -532.5862m
  beta       811.8105u    811.8105u      1.8720m      1.8720m    205.6498u
  gam eff      1.0565       1.0565       1.0443       1.0443     696.0800m
  gm         117.3079u    117.3079u    8.162e-23    8.162e-23     79.2952u
  gds          5.6842u      5.6842u    1.981e-24    1.981e-24      3.9619u
  gmb         32.2156u     32.2156u    1.869e-23    1.869e-23     26.5773u
  cdtot      378.1278a    378.1278a    792.0341a    792.0341a    651.5913a
  cgtot      377.7685a    377.7685a    696.4486a    696.4486a    767.1899a
  cstot      674.6116a    674.6116a    703.8624a    703.8624a      1.3259f
  cbtot      766.1844a    766.1844a      1.3215f      1.3215f      1.3595f
  cgs        249.6505a    249.6505a    217.7010a    217.7010a    589.7068a
  cgd         78.1514a     78.1514a    217.7300a    217.7300a    139.6905a



 subckt     xsram1_1     xsram1_2     xsram1_2     xsram1_2     xsram1_2  
 element   12:mp2       13:mn1       13:mn2       13:mn3       13:mn4     
 model      0:pch.16     0:nch.16     0:nch.16     0:nch.12     0:nch.12  
 region       Saturati     Saturati     Saturati       Cutoff       Cutoff
  id         -26.5031u     26.5031u     26.5031u   -2.713e-24   -2.713e-24
  ibs        9.593e-21   -1.606e-20   -1.606e-20     -4.1508a     -4.1508a
  ibd          3.0732a     -7.7446f     -7.7446f     -4.1508a     -4.1508a
  vgs         -1.0385     761.4809m    761.4809m     -1.8000      -1.8000 
  vds         -1.0385     761.4809m    761.4809m     -1.0385      -1.0385 
  vbs          0.           0.           0.          -1.8000      -1.8000 
  vth       -505.9328m    482.0276m    482.0276m    708.9859m    708.9859m
  vdsat     -378.5818m    201.2973m    201.2973m     44.7442m     44.7442m
  vod       -532.5862m    279.4534m    279.4534m     -2.5090      -2.5090 
  beta       205.6498u    811.8105u    811.8105u      1.8720m      1.8720m
  gam eff    696.0800m      1.0565       1.0565       1.0443       1.0443 
  gm          79.2952u    117.3079u    117.3079u    8.162e-23    8.162e-23
  gds          3.9619u      5.6842u      5.6842u    1.981e-24    1.981e-24
  gmb         26.5773u     32.2156u     32.2156u    1.869e-23    1.869e-23
  cdtot      651.5913a    378.1278a    378.1278a    792.0341a    792.0341a
  cgtot      767.1899a    377.7685a    377.7685a    696.4486a    696.4486a
  cstot        1.3259f    674.6116a    674.6116a    703.8624a    703.8624a
  cbtot        1.3595f    766.1844a    766.1844a      1.3215f      1.3215f
  cgs        589.7068a    249.6505a    249.6505a    217.7010a    217.7010a
  cgd        139.6905a     78.1514a     78.1514a    217.7300a    217.7300a



 subckt     xsram1_2     xsram1_2     xsram1_3     xsram1_3     xsram1_3  
 element   13:mp1       13:mp2       14:mn1       14:mn2       14:mn3     
 model      0:pch.16     0:pch.16     0:nch.16     0:nch.16     0:nch.12  
 region       Saturati     Saturati     Saturati     Saturati       Cutoff
  id         -26.5031u    -26.5031u     26.5031u     26.5031u   -2.713e-24
  ibs        9.593e-21    9.593e-21   -1.606e-20   -1.606e-20     -4.1508a
  ibd          3.0732a      3.0732a     -7.7446f     -7.7446f     -4.1508a
  vgs         -1.0385      -1.0385     761.4809m    761.4809m     -1.8000 
  vds         -1.0385      -1.0385     761.4809m    761.4809m     -1.0385 
  vbs          0.           0.           0.           0.          -1.8000 
  vth       -505.9328m   -505.9328m    482.0276m    482.0276m    708.9859m
  vdsat     -378.5818m   -378.5818m    201.2973m    201.2973m     44.7442m
  vod       -532.5862m   -532.5862m    279.4534m    279.4534m     -2.5090 
  beta       205.6498u    205.6498u    811.8105u    811.8105u      1.8720m
  gam eff    696.0800m    696.0800m      1.0565       1.0565       1.0443 
  gm          79.2952u     79.2952u    117.3079u    117.3079u    8.162e-23
  gds          3.9619u      3.9619u      5.6842u      5.6842u    1.981e-24
  gmb         26.5773u     26.5773u     32.2156u     32.2156u    1.869e-23
  cdtot      651.5913a    651.5913a    378.1278a    378.1278a    792.0341a
  cgtot      767.1899a    767.1899a    377.7685a    377.7685a    696.4486a
  cstot        1.3259f      1.3259f    674.6116a    674.6116a    703.8624a
  cbtot        1.3595f      1.3595f    766.1844a    766.1844a      1.3215f
  cgs        589.7068a    589.7068a    249.6505a    249.6505a    217.7010a
  cgd        139.6905a    139.6905a     78.1514a     78.1514a    217.7300a



 subckt     xsram1_3     xsram1_3     xsram1_3     xsram2_0     xsram2_0  
 element   14:mn4       14:mp1       14:mp2       15:mn1       15:mn2     
 model      0:nch.12     0:pch.16     0:pch.16     0:nch.16     0:nch.16  
 region         Cutoff     Saturati     Saturati     Saturati     Saturati
  id        -2.713e-24    -26.5031u    -26.5031u     26.5031u     26.5031u
  ibs         -4.1508a    9.593e-21    9.593e-21   -1.606e-20   -1.606e-20
  ibd         -4.1508a      3.0732a      3.0732a     -7.7446f     -7.7446f
  vgs         -1.8000      -1.0385      -1.0385     761.4809m    761.4809m
  vds         -1.0385      -1.0385      -1.0385     761.4809m    761.4809m
  vbs         -1.8000       0.           0.           0.           0.     
  vth        708.9859m   -505.9328m   -505.9328m    482.0276m    482.0276m
  vdsat       44.7442m   -378.5818m   -378.5818m    201.2973m    201.2973m
  vod         -2.5090    -532.5862m   -532.5862m    279.4534m    279.4534m
  beta         1.8720m    205.6498u    205.6498u    811.8105u    811.8105u
  gam eff      1.0443     696.0800m    696.0800m      1.0565       1.0565 
  gm         8.162e-23     79.2952u     79.2952u    117.3079u    117.3079u
  gds        1.981e-24      3.9619u      3.9619u      5.6842u      5.6842u
  gmb        1.869e-23     26.5773u     26.5773u     32.2156u     32.2156u
  cdtot      792.0341a    651.5913a    651.5913a    378.1278a    378.1278a
  cgtot      696.4486a    767.1899a    767.1899a    377.7685a    377.7685a
  cstot      703.8624a      1.3259f      1.3259f    674.6116a    674.6116a
  cbtot        1.3215f      1.3595f      1.3595f    766.1844a    766.1844a
  cgs        217.7010a    589.7068a    589.7068a    249.6505a    249.6505a
  cgd        217.7300a    139.6905a    139.6905a     78.1514a     78.1514a



 subckt     xsram2_0     xsram2_0     xsram2_0     xsram2_0     xsram2_1  
 element   15:mn3       15:mn4       15:mp1       15:mp2       16:mn1     
 model      0:nch.12     0:nch.12     0:pch.16     0:pch.16     0:nch.16  
 region         Cutoff       Cutoff     Saturati     Saturati     Saturati
  id        -2.713e-24   -2.713e-24    -26.5031u    -26.5031u     26.5031u
  ibs         -4.1508a     -4.1508a    9.593e-21    9.593e-21   -1.606e-20
  ibd         -4.1508a     -4.1508a      3.0732a      3.0732a     -7.7446f
  vgs         -1.8000      -1.8000      -1.0385      -1.0385     761.4809m
  vds         -1.0385      -1.0385      -1.0385      -1.0385     761.4809m
  vbs         -1.8000      -1.8000       0.           0.           0.     
  vth        708.9859m    708.9859m   -505.9328m   -505.9328m    482.0276m
  vdsat       44.7442m     44.7442m   -378.5818m   -378.5818m    201.2973m
  vod         -2.5090      -2.5090    -532.5862m   -532.5862m    279.4534m
  beta         1.8720m      1.8720m    205.6498u    205.6498u    811.8105u
  gam eff      1.0443       1.0443     696.0800m    696.0800m      1.0565 
  gm         8.162e-23    8.162e-23     79.2952u     79.2952u    117.3079u
  gds        1.981e-24    1.981e-24      3.9619u      3.9619u      5.6842u
  gmb        1.869e-23    1.869e-23     26.5773u     26.5773u     32.2156u
  cdtot      792.0341a    792.0341a    651.5913a    651.5913a    378.1278a
  cgtot      696.4486a    696.4486a    767.1899a    767.1899a    377.7685a
  cstot      703.8624a    703.8624a      1.3259f      1.3259f    674.6116a
  cbtot        1.3215f      1.3215f      1.3595f      1.3595f    766.1844a
  cgs        217.7010a    217.7010a    589.7068a    589.7068a    249.6505a
  cgd        217.7300a    217.7300a    139.6905a    139.6905a     78.1514a



 subckt     xsram2_1     xsram2_1     xsram2_1     xsram2_1     xsram2_1  
 element   16:mn2       16:mn3       16:mn4       16:mp1       16:mp2     
 model      0:nch.16     0:nch.12     0:nch.12     0:pch.16     0:pch.16  
 region       Saturati       Cutoff       Cutoff     Saturati     Saturati
  id          26.5031u   -2.713e-24   -2.713e-24    -26.5031u    -26.5031u
  ibs       -1.606e-20     -4.1508a     -4.1508a    9.593e-21    9.593e-21
  ibd         -7.7446f     -4.1508a     -4.1508a      3.0732a      3.0732a
  vgs        761.4809m     -1.8000      -1.8000      -1.0385      -1.0385 
  vds        761.4809m     -1.0385      -1.0385      -1.0385      -1.0385 
  vbs          0.          -1.8000      -1.8000       0.           0.     
  vth        482.0276m    708.9859m    708.9859m   -505.9328m   -505.9328m
  vdsat      201.2973m     44.7442m     44.7442m   -378.5818m   -378.5818m
  vod        279.4534m     -2.5090      -2.5090    -532.5862m   -532.5862m
  beta       811.8105u      1.8720m      1.8720m    205.6498u    205.6498u
  gam eff      1.0565       1.0443       1.0443     696.0800m    696.0800m
  gm         117.3079u    8.162e-23    8.162e-23     79.2952u     79.2952u
  gds          5.6842u    1.981e-24    1.981e-24      3.9619u      3.9619u
  gmb         32.2156u    1.869e-23    1.869e-23     26.5773u     26.5773u
  cdtot      378.1278a    792.0341a    792.0341a    651.5913a    651.5913a
  cgtot      377.7685a    696.4486a    696.4486a    767.1899a    767.1899a
  cstot      674.6116a    703.8624a    703.8624a      1.3259f      1.3259f
  cbtot      766.1844a      1.3215f      1.3215f      1.3595f      1.3595f
  cgs        249.6505a    217.7010a    217.7010a    589.7068a    589.7068a
  cgd         78.1514a    217.7300a    217.7300a    139.6905a    139.6905a



 subckt     xsram2_2     xsram2_2     xsram2_2     xsram2_2     xsram2_2  
 element   17:mn1       17:mn2       17:mn3       17:mn4       17:mp1     
 model      0:nch.16     0:nch.16     0:nch.12     0:nch.12     0:pch.16  
 region       Saturati     Saturati       Cutoff       Cutoff     Saturati
  id          26.5031u     26.5031u   -2.713e-24   -2.713e-24    -26.5031u
  ibs       -1.606e-20   -1.606e-20     -4.1508a     -4.1508a    9.593e-21
  ibd         -7.7446f     -7.7446f     -4.1508a     -4.1508a      3.0732a
  vgs        761.4809m    761.4809m     -1.8000      -1.8000      -1.0385 
  vds        761.4809m    761.4809m     -1.0385      -1.0385      -1.0385 
  vbs          0.           0.          -1.8000      -1.8000       0.     
  vth        482.0276m    482.0276m    708.9859m    708.9859m   -505.9328m
  vdsat      201.2973m    201.2973m     44.7442m     44.7442m   -378.5818m
  vod        279.4534m    279.4534m     -2.5090      -2.5090    -532.5862m
  beta       811.8105u    811.8105u      1.8720m      1.8720m    205.6498u
  gam eff      1.0565       1.0565       1.0443       1.0443     696.0800m
  gm         117.3079u    117.3079u    8.162e-23    8.162e-23     79.2952u
  gds          5.6842u      5.6842u    1.981e-24    1.981e-24      3.9619u
  gmb         32.2156u     32.2156u    1.869e-23    1.869e-23     26.5773u
  cdtot      378.1278a    378.1278a    792.0341a    792.0341a    651.5913a
  cgtot      377.7685a    377.7685a    696.4486a    696.4486a    767.1899a
  cstot      674.6116a    674.6116a    703.8624a    703.8624a      1.3259f
  cbtot      766.1844a    766.1844a      1.3215f      1.3215f      1.3595f
  cgs        249.6505a    249.6505a    217.7010a    217.7010a    589.7068a
  cgd         78.1514a     78.1514a    217.7300a    217.7300a    139.6905a



 subckt     xsram2_2     xsram2_3     xsram2_3     xsram2_3     xsram2_3  
 element   17:mp2       18:mn1       18:mn2       18:mn3       18:mn4     
 model      0:pch.16     0:nch.16     0:nch.16     0:nch.12     0:nch.12  
 region       Saturati     Saturati     Saturati       Cutoff       Cutoff
  id         -26.5031u     26.5031u     26.5031u   -2.713e-24   -2.713e-24
  ibs        9.593e-21   -1.606e-20   -1.606e-20     -4.1508a     -4.1508a
  ibd          3.0732a     -7.7446f     -7.7446f     -4.1508a     -4.1508a
  vgs         -1.0385     761.4809m    761.4809m     -1.8000      -1.8000 
  vds         -1.0385     761.4809m    761.4809m     -1.0385      -1.0385 
  vbs          0.           0.           0.          -1.8000      -1.8000 
  vth       -505.9328m    482.0276m    482.0276m    708.9859m    708.9859m
  vdsat     -378.5818m    201.2973m    201.2973m     44.7442m     44.7442m
  vod       -532.5862m    279.4534m    279.4534m     -2.5090      -2.5090 
  beta       205.6498u    811.8105u    811.8105u      1.8720m      1.8720m
  gam eff    696.0800m      1.0565       1.0565       1.0443       1.0443 
  gm          79.2952u    117.3079u    117.3079u    8.162e-23    8.162e-23
  gds          3.9619u      5.6842u      5.6842u    1.981e-24    1.981e-24
  gmb         26.5773u     32.2156u     32.2156u    1.869e-23    1.869e-23
  cdtot      651.5913a    378.1278a    378.1278a    792.0341a    792.0341a
  cgtot      767.1899a    377.7685a    377.7685a    696.4486a    696.4486a
  cstot        1.3259f    674.6116a    674.6116a    703.8624a    703.8624a
  cbtot        1.3595f    766.1844a    766.1844a      1.3215f      1.3215f
  cgs        589.7068a    249.6505a    249.6505a    217.7010a    217.7010a
  cgd        139.6905a     78.1514a     78.1514a    217.7300a    217.7300a



 subckt     xsram2_3     xsram2_3     xsram3_0     xsram3_0     xsram3_0  
 element   18:mp1       18:mp2       19:mn1       19:mn2       19:mn3     
 model      0:pch.16     0:pch.16     0:nch.16     0:nch.16     0:nch.12  
 region       Saturati     Saturati     Saturati     Saturati       Cutoff
  id         -26.5031u    -26.5031u     26.5031u     26.5031u   -2.713e-24
  ibs        9.593e-21    9.593e-21   -1.606e-20   -1.606e-20     -4.1508a
  ibd          3.0732a      3.0732a     -7.7446f     -7.7446f     -4.1508a
  vgs         -1.0385      -1.0385     761.4809m    761.4809m     -1.8000 
  vds         -1.0385      -1.0385     761.4809m    761.4809m     -1.0385 
  vbs          0.           0.           0.           0.          -1.8000 
  vth       -505.9328m   -505.9328m    482.0276m    482.0276m    708.9859m
  vdsat     -378.5818m   -378.5818m    201.2973m    201.2973m     44.7442m
  vod       -532.5862m   -532.5862m    279.4534m    279.4534m     -2.5090 
  beta       205.6498u    205.6498u    811.8105u    811.8105u      1.8720m
  gam eff    696.0800m    696.0800m      1.0565       1.0565       1.0443 
  gm          79.2952u     79.2952u    117.3079u    117.3079u    8.162e-23
  gds          3.9619u      3.9619u      5.6842u      5.6842u    1.981e-24
  gmb         26.5773u     26.5773u     32.2156u     32.2156u    1.869e-23
  cdtot      651.5913a    651.5913a    378.1278a    378.1278a    792.0341a
  cgtot      767.1899a    767.1899a    377.7685a    377.7685a    696.4486a
  cstot        1.3259f      1.3259f    674.6116a    674.6116a    703.8624a
  cbtot        1.3595f      1.3595f    766.1844a    766.1844a      1.3215f
  cgs        589.7068a    589.7068a    249.6505a    249.6505a    217.7010a
  cgd        139.6905a    139.6905a     78.1514a     78.1514a    217.7300a



 subckt     xsram3_0     xsram3_0     xsram3_0     xsram3_1     xsram3_1  
 element   19:mn4       19:mp1       19:mp2       20:mn1       20:mn2     
 model      0:nch.12     0:pch.16     0:pch.16     0:nch.16     0:nch.16  
 region         Cutoff     Saturati     Saturati     Saturati     Saturati
  id        -2.713e-24    -26.5031u    -26.5031u     26.5031u     26.5031u
  ibs         -4.1508a    9.593e-21    9.593e-21   -1.606e-20   -1.606e-20
  ibd         -4.1508a      3.0732a      3.0732a     -7.7446f     -7.7446f
  vgs         -1.8000      -1.0385      -1.0385     761.4809m    761.4809m
  vds         -1.0385      -1.0385      -1.0385     761.4809m    761.4809m
  vbs         -1.8000       0.           0.           0.           0.     
  vth        708.9859m   -505.9328m   -505.9328m    482.0276m    482.0276m
  vdsat       44.7442m   -378.5818m   -378.5818m    201.2973m    201.2973m
  vod         -2.5090    -532.5862m   -532.5862m    279.4534m    279.4534m
  beta         1.8720m    205.6498u    205.6498u    811.8105u    811.8105u
  gam eff      1.0443     696.0800m    696.0800m      1.0565       1.0565 
  gm         8.162e-23     79.2952u     79.2952u    117.3079u    117.3079u
  gds        1.981e-24      3.9619u      3.9619u      5.6842u      5.6842u
  gmb        1.869e-23     26.5773u     26.5773u     32.2156u     32.2156u
  cdtot      792.0341a    651.5913a    651.5913a    378.1278a    378.1278a
  cgtot      696.4486a    767.1899a    767.1899a    377.7685a    377.7685a
  cstot      703.8624a      1.3259f      1.3259f    674.6116a    674.6116a
  cbtot        1.3215f      1.3595f      1.3595f    766.1844a    766.1844a
  cgs        217.7010a    589.7068a    589.7068a    249.6505a    249.6505a
  cgd        217.7300a    139.6905a    139.6905a     78.1514a     78.1514a



 subckt     xsram3_1     xsram3_1     xsram3_1     xsram3_1     xsram3_2  
 element   20:mn3       20:mn4       20:mp1       20:mp2       21:mn1     
 model      0:nch.12     0:nch.12     0:pch.16     0:pch.16     0:nch.16  
 region         Cutoff       Cutoff     Saturati     Saturati     Saturati
  id        -2.713e-24   -2.713e-24    -26.5031u    -26.5031u     26.5031u
  ibs         -4.1508a     -4.1508a    9.593e-21    9.593e-21   -1.606e-20
  ibd         -4.1508a     -4.1508a      3.0732a      3.0732a     -7.7446f
  vgs         -1.8000      -1.8000      -1.0385      -1.0385     761.4809m
  vds         -1.0385      -1.0385      -1.0385      -1.0385     761.4809m
  vbs         -1.8000      -1.8000       0.           0.           0.     
  vth        708.9859m    708.9859m   -505.9328m   -505.9328m    482.0276m
  vdsat       44.7442m     44.7442m   -378.5818m   -378.5818m    201.2973m
  vod         -2.5090      -2.5090    -532.5862m   -532.5862m    279.4534m
  beta         1.8720m      1.8720m    205.6498u    205.6498u    811.8105u
  gam eff      1.0443       1.0443     696.0800m    696.0800m      1.0565 
  gm         8.162e-23    8.162e-23     79.2952u     79.2952u    117.3079u
  gds        1.981e-24    1.981e-24      3.9619u      3.9619u      5.6842u
  gmb        1.869e-23    1.869e-23     26.5773u     26.5773u     32.2156u
  cdtot      792.0341a    792.0341a    651.5913a    651.5913a    378.1278a
  cgtot      696.4486a    696.4486a    767.1899a    767.1899a    377.7685a
  cstot      703.8624a    703.8624a      1.3259f      1.3259f    674.6116a
  cbtot        1.3215f      1.3215f      1.3595f      1.3595f    766.1844a
  cgs        217.7010a    217.7010a    589.7068a    589.7068a    249.6505a
  cgd        217.7300a    217.7300a    139.6905a    139.6905a     78.1514a



 subckt     xsram3_2     xsram3_2     xsram3_2     xsram3_2     xsram3_2  
 element   21:mn2       21:mn3       21:mn4       21:mp1       21:mp2     
 model      0:nch.16     0:nch.12     0:nch.12     0:pch.16     0:pch.16  
 region       Saturati       Cutoff       Cutoff     Saturati     Saturati
  id          26.5031u   -2.713e-24   -2.713e-24    -26.5031u    -26.5031u
  ibs       -1.606e-20     -4.1508a     -4.1508a    9.593e-21    9.593e-21
  ibd         -7.7446f     -4.1508a     -4.1508a      3.0732a      3.0732a
  vgs        761.4809m     -1.8000      -1.8000      -1.0385      -1.0385 
  vds        761.4809m     -1.0385      -1.0385      -1.0385      -1.0385 
  vbs          0.          -1.8000      -1.8000       0.           0.     
  vth        482.0276m    708.9859m    708.9859m   -505.9328m   -505.9328m
  vdsat      201.2973m     44.7442m     44.7442m   -378.5818m   -378.5818m
  vod        279.4534m     -2.5090      -2.5090    -532.5862m   -532.5862m
  beta       811.8105u      1.8720m      1.8720m    205.6498u    205.6498u
  gam eff      1.0565       1.0443       1.0443     696.0800m    696.0800m
  gm         117.3079u    8.162e-23    8.162e-23     79.2952u     79.2952u
  gds          5.6842u    1.981e-24    1.981e-24      3.9619u      3.9619u
  gmb         32.2156u    1.869e-23    1.869e-23     26.5773u     26.5773u
  cdtot      378.1278a    792.0341a    792.0341a    651.5913a    651.5913a
  cgtot      377.7685a    696.4486a    696.4486a    767.1899a    767.1899a
  cstot      674.6116a    703.8624a    703.8624a      1.3259f      1.3259f
  cbtot      766.1844a      1.3215f      1.3215f      1.3595f      1.3595f
  cgs        249.6505a    217.7010a    217.7010a    589.7068a    589.7068a
  cgd         78.1514a    217.7300a    217.7300a    139.6905a    139.6905a



 subckt     xsram3_3     xsram3_3     xsram3_3     xsram3_3     xsram3_3  
 element   22:mn1       22:mn2       22:mn3       22:mn4       22:mp1     
 model      0:nch.16     0:nch.16     0:nch.12     0:nch.12     0:pch.16  
 region       Saturati     Saturati       Cutoff       Cutoff     Saturati
  id          26.5031u     26.5031u   -2.713e-24   -2.713e-24    -26.5031u
  ibs       -1.606e-20   -1.606e-20     -4.1508a     -4.1508a    9.593e-21
  ibd         -7.7446f     -7.7446f     -4.1508a     -4.1508a      3.0732a
  vgs        761.4809m    761.4809m     -1.8000      -1.8000      -1.0385 
  vds        761.4809m    761.4809m     -1.0385      -1.0385      -1.0385 
  vbs          0.           0.          -1.8000      -1.8000       0.     
  vth        482.0276m    482.0276m    708.9859m    708.9859m   -505.9328m
  vdsat      201.2973m    201.2973m     44.7442m     44.7442m   -378.5818m
  vod        279.4534m    279.4534m     -2.5090      -2.5090    -532.5862m
  beta       811.8105u    811.8105u      1.8720m      1.8720m    205.6498u
  gam eff      1.0565       1.0565       1.0443       1.0443     696.0800m
  gm         117.3079u    117.3079u    8.162e-23    8.162e-23     79.2952u
  gds          5.6842u      5.6842u    1.981e-24    1.981e-24      3.9619u
  gmb         32.2156u     32.2156u    1.869e-23    1.869e-23     26.5773u
  cdtot      378.1278a    378.1278a    792.0341a    792.0341a    651.5913a
  cgtot      377.7685a    377.7685a    696.4486a    696.4486a    767.1899a
  cstot      674.6116a    674.6116a    703.8624a    703.8624a      1.3259f
  cbtot      766.1844a    766.1844a      1.3215f      1.3215f      1.3595f
  cgs        249.6505a    249.6505a    217.7010a    217.7010a    589.7068a
  cgd         78.1514a     78.1514a    217.7300a    217.7300a    139.6905a



 subckt     xsram3_3     xpc0         xpc0         xpc0         xpc1      
 element   22:mp2       24:mp5       24:mp6       24:mp7       25:mp5     
 model      0:pch.16     0:pch.12     0:pch.12     0:pch.12     0:pch.12  
 region       Saturati       Linear       Linear       Linear       Linear
  id         -26.5031u    -25.3221p    -20.6378p     -4.6843p    -25.3223p
  ibs        9.593e-21    6.785e-27    5.530e-27    9.694e-24    6.785e-27
  ibd          3.0732a    1.189e-23    9.687e-24    1.189e-23    1.189e-23
  vgs         -1.0385      -1.8000      -1.8000      -1.8000      -1.8000 
  vds         -1.0385     -63.9088n    -52.0863n    -11.8225n    -63.9092n
  vbs          0.           0.           0.          52.0863n      0.     
  vth       -505.9328m   -510.0130m   -510.0130m   -510.0130m   -510.0130m
  vdsat     -378.5818m   -722.9699m   -722.9699m   -722.9699m   -722.9699m
  vod       -532.5862m     -1.2900      -1.2900      -1.2900      -1.2900 
  beta       205.6498u    397.2930u    397.2930u    397.2930u    397.2930u
  gam eff    696.0800m    650.9663m    650.9663m    650.9663m    650.9663m
  gm          79.2952u     11.5352p      9.4013p      2.1339p     11.5353p
  gds          3.9619u    396.6749u    396.6749u    396.6749u    396.6749u
  gmb         26.5773u      7.3498p      5.9901p      1.3596p      7.3498p
  cdtot      651.5913a      3.7311f      3.7311f      3.7311f      3.7311f
  cgtot      767.1899a      1.9932f      1.9932f      1.9932f      1.9932f
  cstot        1.3259f      3.2297f      3.2297f      3.2297f      3.2297f
  cbtot        1.3595f      3.0644f      3.0644f      3.0644f      3.0644f
  cgs        589.7068a      1.0346f      1.0346f      1.0346f      1.0346f
  cgd        139.6905a    976.1279a    976.1279a    976.1279a    976.1279a



 subckt     xpc1         xpc1         xpc2         xpc2         xpc2      
 element   25:mp6       25:mp7       26:mp5       26:mp6       26:mp7     
 model      0:pch.12     0:pch.12     0:pch.12     0:pch.12     0:pch.12  
 region         Linear       Linear       Linear       Linear       Linear
  id         -20.6381p     -4.6842p    -25.3222p    -20.6378p     -4.6843p
  ibs        5.530e-27    9.694e-24    6.785e-27    5.530e-27    9.694e-24
  ibd        9.687e-24    1.189e-23    1.189e-23    9.687e-24    1.189e-23
  vgs         -1.8000      -1.8000      -1.8000      -1.8000      -1.8000 
  vds        -52.0871n    -11.8221n    -63.9090n    -52.0865n    -11.8225n
  vbs          0.          52.0871n      0.           0.          52.0865n
  vth       -510.0130m   -510.0130m   -510.0130m   -510.0130m   -510.0130m
  vdsat     -722.9699m   -722.9699m   -722.9699m   -722.9699m   -722.9699m
  vod         -1.2900      -1.2900      -1.2900      -1.2900      -1.2900 
  beta       397.2930u    397.2930u    397.2930u    397.2930u    397.2930u
  gam eff    650.9663m    650.9663m    650.9663m    650.9663m    650.9663m
  gm           9.4015p      2.1338p     11.5353p      9.4014p      2.1339p
  gds        396.6749u    396.6749u    396.6749u    396.6749u    396.6749u
  gmb          5.9902p      1.3596p      7.3498p      5.9902p      1.3596p
  cdtot        3.7311f      3.7311f      3.7311f      3.7311f      3.7311f
  cgtot        1.9932f      1.9932f      1.9932f      1.9932f      1.9932f
  cstot        3.2297f      3.2297f      3.2297f      3.2297f      3.2297f
  cbtot        3.0644f      3.0644f      3.0644f      3.0644f      3.0644f
  cgs          1.0346f      1.0346f      1.0346f      1.0346f      1.0346f
  cgd        976.1279a    976.1279a    976.1279a    976.1279a    976.1279a



 subckt     xpc3         xpc3         xpc3         xinv0_0      xinv0_0   
 element   27:mp5       27:mp6       27:mp7       28:mn16      28:mp11    
 model      0:pch.12     0:pch.12     0:pch.12     0:nch.12     0:pch.8   
 region         Linear       Linear       Linear     Saturati       Linear
  id         -25.3217p    -20.6374p     -4.6844p     74.0746u    -74.1021u
  ibs        6.785e-27    5.530e-27    9.693e-24   -2.271e-20    1.589e-20
  ibd        1.189e-23    9.687e-24    1.189e-23    -27.5638n     13.3993a
  vgs         -1.8000      -1.8000      -1.8000     747.8380m     -1.0522 
  vds        -63.9079n    -52.0854n    -11.8225n      1.6998    -100.2284m
  vbs          0.           0.          52.0854n      0.           0.     
  vth       -510.0130m   -510.0130m   -510.0130m    535.0226m   -509.4518m
  vdsat     -722.9699m   -722.9699m   -722.9699m    160.1852m   -380.3295m
  vod         -1.2900      -1.2900      -1.2900     212.8155m   -542.7101m
  beta       397.2930u    397.2930u    397.2930u      3.0108m      1.8005m
  gam eff    650.9663m    650.9663m    650.9663m    991.8538m    669.0855m
  gm          11.5351p      9.4012p      2.1339p    439.3763u    125.1946u
  gds        396.6749u    396.6749u    396.6749u     10.8157u    650.4375u
  gmb          7.3497p      5.9900p      1.3596p    124.7898u     50.2069u
  cdtot        3.7311f      3.7311f      3.7311f      1.1001f     10.3072f
  cgtot        1.9932f      1.9932f      1.9932f      1.7654f      6.8457f
  cstot        3.2297f      3.2297f      3.2297f      2.5263f     10.2937f
  cbtot        3.0644f      3.0644f      3.0644f      2.2396f      9.6143f
  cgs          1.0346f      1.0346f      1.0346f      1.2383f      4.0603f
  cgd        976.1279a    976.1279a    976.1279a    362.3404a      2.7986f



 subckt     xinv1_0      xinv1_0      xinv2_0      xinv2_0      xinv3_0   
 element   30:mn16      30:mp11      32:mn16      32:mp11      34:mn16    
 model      0:nch.12     0:pch.8      0:nch.12     0:pch.8      0:nch.12  
 region       Saturati       Linear     Saturati       Linear     Saturati
  id          74.0746u    -74.1021u     74.0746u    -74.1021u     74.0746u
  ibs       -2.271e-20    1.589e-20   -2.271e-20    1.589e-20   -2.271e-20
  ibd        -27.5638n     13.3993a    -27.5638n     13.3993a    -27.5638n
  vgs        747.8380m     -1.0522     747.8380m     -1.0522     747.8380m
  vds          1.6998    -100.2284m      1.6998    -100.2284m      1.6998 
  vbs          0.           0.           0.           0.           0.     
  vth        535.0226m   -509.4518m    535.0226m   -509.4518m    535.0226m
  vdsat      160.1852m   -380.3295m    160.1852m   -380.3295m    160.1852m
  vod        212.8155m   -542.7101m    212.8155m   -542.7101m    212.8155m
  beta         3.0108m      1.8005m      3.0108m      1.8005m      3.0108m
  gam eff    991.8538m    669.0855m    991.8538m    669.0855m    991.8538m
  gm         439.3763u    125.1946u    439.3763u    125.1946u    439.3763u
  gds         10.8157u    650.4375u     10.8157u    650.4375u     10.8157u
  gmb        124.7898u     50.2069u    124.7898u     50.2069u    124.7898u
  cdtot        1.1001f     10.3072f      1.1001f     10.3072f      1.1001f
  cgtot        1.7654f      6.8457f      1.7654f      6.8457f      1.7654f
  cstot        2.5263f     10.2937f      2.5263f     10.2937f      2.5263f
  cbtot        2.2396f      9.6143f      2.2396f      9.6143f      2.2396f
  cgs          1.2383f      4.0603f      1.2383f      4.0603f      1.2383f
  cgd        362.3404a      2.7986f    362.3404a      2.7986f    362.3404a



 subckt     xinv3_0      xnor0_0      xnor0_0      xnor0_0      xnor0_0   
 element   34:mp11      36:m0        36:m1        36:m2        36:m3      
 model      0:pch.8      0:pch.8      0:pch.8      0:nch.12     0:nch.12  
 region         Linear       Cutoff       Cutoff       Linear       Linear
  id         -74.1021u      2.3328p      3.6776p      5.0420p      1.4494p
  ibs        1.589e-20      5.5084a      5.5101a   -1.834e-27   -5.272e-28
  ibd         13.3993a    7.971e-28      5.5084a   -6.634e-25   -6.647e-25
  vgs         -1.0522     786.1756m    761.4809m      1.8000     761.4809m
  vds       -100.2284m    786.1756m      1.0138       4.1452n      4.1452n
  vbs          0.         786.1756m      1.8000       0.           0.     
  vth       -509.4518m   -506.0959m   -731.2340m    542.1588m    542.1588m
  vdsat     -380.3295m    -40.9745m    -43.7206m    478.8889m    165.8538m
  vod       -542.7101m      1.2923       1.4927       1.2578     219.3222m
  beta         1.8005m    594.9098u    549.2589u      1.5447m      1.8824m
  gam eff    669.0855m    647.4142m    645.8852m    969.4677m    969.4677m
  gm         125.1946u     67.5780p    110.4182p      1.7700p      5.8024p
  gds        650.4375u      2.1368p      3.7798p      1.2231m    350.2180u
  gmb         50.2069u     25.5519p     29.0939p    987.1268f      1.7743p
  cdtot       10.3072f      1.9313f      1.5904f      2.0503f      1.8943f
  cgtot        6.8457f      1.2572f      1.1205f      1.2333f      1.1828f
  cstot       10.2937f      1.5904f      1.3861f      1.8224f      1.7383f
  cbtot        9.6143f      3.2175f      2.5357f      1.7277f      1.7291f
  cgs          4.0603f    390.3200a    390.3200a    579.6593a    571.2271a
  cgd          2.7986f    390.3358a    390.3320a    606.9077a    551.9398a



 subckt     xnor0_1      xnor0_1      xnor0_1      xnor0_1      xnor0_2   
 element   37:m0        37:m1        37:m2        37:m3        38:m0      
 model      0:pch.8      0:pch.8      0:nch.12     0:nch.12     0:pch.8   
 region         Cutoff       Cutoff       Linear       Linear       Cutoff
  id           2.3328p      3.6774p      5.0419p      1.4494p      2.3328p
  ibs          5.5084a      5.5101a   -1.834e-27   -5.272e-28      5.5084a
  ibd        7.971e-28      5.5084a   -6.634e-25   -6.647e-25    7.971e-28
  vgs        786.1765m    761.4809m      1.8000     761.4809m    786.1765m
  vds        786.1765m      1.0138       4.1451n      4.1451n    786.1765m
  vbs        786.1765m      1.8000       0.           0.         786.1765m
  vth       -506.0959m   -731.2343m    542.1588m    542.1588m   -506.0959m
  vdsat      -40.9745m    -43.7207m    478.8889m    165.8538m    -40.9745m
  vod          1.2923       1.4927       1.2578     219.3222m      1.2923 
  beta       594.9098u    549.2588u      1.5447m      1.8824m    594.9098u
  gam eff    647.4142m    645.8852m    969.4677m    969.4677m    647.4142m
  gm          67.5781p    110.4142p      1.7700p      5.8023p     67.5781p
  gds          2.1368p      3.7797p      1.2231m    350.2180u      2.1368p
  gmb         25.5520p     29.0928p    987.1061f      1.7743p     25.5520p
  cdtot        1.9313f      1.5904f      2.0503f      1.8943f      1.9313f
  cgtot        1.2572f      1.1205f      1.2333f      1.1828f      1.2572f
  cstot        1.5904f      1.3861f      1.8224f      1.7383f      1.5904f
  cbtot        3.2175f      2.5357f      1.7277f      1.7291f      3.2175f
  cgs        390.3200a    390.3200a    579.6593a    571.2271a    390.3200a
  cgd        390.3358a    390.3320a    606.9077a    551.9398a    390.3358a



 subckt     xnor0_2      xnor0_2      xnor0_2      xnor0_3      xnor0_3   
 element   38:m1        38:m2        38:m3        39:m0        39:m1      
 model      0:pch.8      0:nch.12     0:nch.12     0:pch.8      0:pch.8   
 region         Cutoff       Linear       Linear       Cutoff       Cutoff
  id           3.6774p      5.0419p      1.4494p      2.3328p      3.6775p
  ibs          5.5101a   -1.834e-27   -5.272e-28      5.5084a      5.5101a
  ibd          5.5084a   -6.634e-25   -6.647e-25    7.971e-28      5.5084a
  vgs        761.4809m      1.8000     761.4809m    786.1763m    761.4809m
  vds          1.0138       4.1451n      4.1451n    786.1763m      1.0138 
  vbs          1.8000       0.           0.         786.1763m      1.8000 
  vth       -731.2343m    542.1588m    542.1588m   -506.0959m   -731.2342m
  vdsat      -43.7207m    478.8889m    165.8538m    -40.9745m    -43.7207m
  vod          1.4927       1.2578     219.3222m      1.2923       1.4927 
  beta       549.2588u      1.5447m      1.8824m    594.9098u    549.2589u
  gam eff    645.8852m    969.4677m    969.4677m    647.4142m    645.8852m
  gm         110.4142p      1.7700p      5.8023p     67.5781p    110.4152p
  gds          3.7797p      1.2231m    350.2180u      2.1368p      3.7797p
  gmb         29.0928p    987.1061f      1.7743p     25.5520p     29.0931p
  cdtot        1.5904f      2.0503f      1.8943f      1.9313f      1.5904f
  cgtot        1.1205f      1.2333f      1.1828f      1.2572f      1.1205f
[...]
  ibd       -1.972e-24   -1.972e-24    1.069e-24    1.069e-24   -837.9649a
  vgs          1.8000       1.8000      -1.8000      -1.8000     -82.8047m
  vds          8.7544n      8.7544n     -5.7471n     -5.7471n      1.7172 
  vbs          0.           0.           0.           0.           0.     
  vth        540.0186m    540.0186m   -510.0130m   -510.0130m    534.9412m
  vdsat      482.8088m    482.8088m   -722.9699m   -722.9699m     41.5704m
  vod          1.2600       1.2600      -1.2900      -1.2900    -617.7459m
  beta         2.3978m      2.3978m    397.2930u    397.2930u      3.0678m
  gam eff    991.8421m    991.8421m    650.9663m    650.9663m    991.8421m
  gm           5.7797p      5.7797p      1.0373p      1.0373p     32.0106p
  gds          1.9515m      1.9515m    396.6749u    396.6749u    443.0266f
  gmb          3.3695p      3.3695p    660.9461f    660.9461f     10.6365p
  cdtot        3.3927f      3.3927f      3.7311f      3.7311f      1.0984f
  cgtot        2.0588f      2.0588f      1.9932f      1.9932f      1.1819f
  cstot        2.9697f      2.9697f      3.2297f      3.2297f      1.4667f
  cbtot        2.6721f      2.6721f      3.0644f      3.0644f      2.2897f
  cgs        973.7251a    973.7251a      1.0346f      1.0346f    364.3421a
  cgd          1.0150f      1.0150f    976.1279a    976.1279a    364.3010a



 subckt     xdff_inb3.   xdff_inb3.   xdff_inb3.   xdff_inb3.   xdff_inb3.
 element  162:mn30     163:mp20     163:mp30     163:mn20     163:mn30    
 model      0:nch.12     0:pch.12     0:pch.12     0:nch.12     0:nch.12  
 region         Cutoff       Cutoff       Linear       Cutoff       Cutoff
  id           4.3886p     -1.3058a    -15.6187p     15.5211p     12.1060p
  ibs       -1.374e-27      0.         4.185e-27   -4.783e-27   -4.257e-27
  ibd         -5.6044a    7.335e-24    7.331e-24     -4.9609a    -10.5385f
  vgs          0.         -42.5300n     -1.8000      48.9209m      0.     
  vds         82.8047m    -39.4189n    -39.4189n     48.9209m      1.7511 
  vbs          0.           0.           0.           0.           0.     
  vth        539.7738m   -510.0130m   -510.0130m    539.8740m    534.8411m
  vdsat       41.5727m    -41.1011m   -722.9699m     41.5729m     41.5705m
  vod       -539.7738m    510.0129m     -1.2900    -490.9531m   -534.8411m
  beta         3.0659m    494.3269u    397.2930u      3.0659m      3.0678m
  gam eff    991.8421m    650.9663m    650.9663m    991.8421m    991.8421m
  gm         125.4427p     39.2290a      7.1149p    443.1263p    346.0030p
  gds         10.8115p     33.1254p    396.6749u    105.4062p      4.7567p
  gmb         42.9111p     15.1414a      4.5333p    149.8572p    112.1532p
  cdtot        1.4260f      1.6416f      3.7311f      1.4419f      1.0951f
  cgtot        1.1660f      1.0485f      1.9932f      1.1574f      1.1660f
  cstot        1.4667f      1.6416f      3.2297f      1.4667f      1.4667f
  cbtot        2.6015f      3.0329f      3.0644f      2.6088f      2.2706f
  cgs        364.3408a    324.7330a      1.0346f    364.3404a    364.3408a
  cgd        364.3010a    324.7201a    976.1279a    364.3010a    364.3010a



 subckt     xdff_inb3.   xdff_inb3.   xdff_inb3.   xdff_inb3.   xdff_inb3.
 element  164:mp20     164:mp30     164:mn20     164:mn30     165:mp20    
 model      0:pch.12     0:pch.12     0:nch.12     0:nch.12     0:pch.12  
 region         Cutoff     Saturati       Linear     Saturati       Cutoff
  id          -2.6090p    -61.8844u     61.8844u     61.8844u     -2.6090p
  ibs        9.810e-28    1.655e-20   -1.898e-20   -1.898e-20    9.809e-28
  ibd          4.8162a      5.4984a     -5.2096a     -5.5462f      4.8162a
  vgs         -5.7471n     -1.0522       1.1097     747.8380m    -42.5300n
  vds         -1.0522      -1.0522      57.5755m    690.2625m     -1.0522 
  vbs          0.           0.           0.           0.           0.     
  vth       -505.2775m   -505.3086m    539.8747m    538.0035m   -505.2775m
  vdsat      -41.1000m   -383.9832m    286.4296m    158.9559m    -41.1000m
  vod        505.2774m   -546.8534m    569.8627m    209.8346m    505.2774m
  beta       494.9057u    457.1860u      2.8468m      3.0098m    494.9057u
  gam eff    650.9663m    650.9663m    991.8519m    991.8519m    650.9663m
  gm          74.4951p    177.7060u     86.0175u    393.6891u     74.4952p
  gds          2.3271p      9.6027u    940.2385u     15.3771u      2.3271p
  gmb         27.8982p     61.1735u     29.8433u    116.2117u     27.8982p
  cdtot        1.2929f      1.2938f      3.0771f      1.2430f      1.2929f
  cgtot        1.0485f      1.7515f      2.0164f      1.7651f      1.0485f
  cstot        1.6417f      2.7889f      2.8670f      2.5338f      1.6417f
  cbtot        2.6842f      2.6258f      2.6353f      2.3831f      2.6842f
  cgs        324.7332a      1.3767f      1.0179f      1.2452f    324.7332a
  cgd        324.7200a    321.5684a    917.8465a    362.5963a    324.7200a



 subckt     xdff_inb3.   xdff_inb3.   xdff_inb3.   xdriver0.x   xdriver0.x
 element  165:mp30     165:mn20     165:mn30     166:mn16     166:mp11    
 model      0:pch.12     0:nch.12     0:nch.12     0:nch.12     0:pch.8   
 region       Saturati       Linear     Saturati       Cutoff       Linear
  id         -61.8844u     61.8844u     61.8844u     12.3397p    -15.9528p
  ibs        1.655e-20   -1.898e-20   -1.898e-20   -4.344e-27    3.423e-27
  ibd          5.4984a     -5.2096a     -5.5462f    -13.3389f    5.600e-24
  vgs         -1.0522       1.1097     747.8380m     12.7437n     -1.8000 
  vds         -1.0522      57.5755m    690.2625m      1.8000     -10.5938n
  vbs          0.           0.           0.           0.           0.     
  vth       -505.3086m    539.8747m    538.0035m    534.6964m   -509.8923m
  vdsat     -383.9832m    286.4296m    158.9559m     41.5704m   -715.0941m
  vod       -546.8534m    569.8627m    209.8346m   -534.6964m     -1.2901 
  beta       457.1860u      2.8468m      3.0098m      3.0678m      1.5368m
  gam eff    650.9663m    991.8519m    991.8519m    991.8421m    669.0853m
  gm         177.7060u     86.0176u    393.6891u    352.6830p      6.6814p
  gds          9.6027u    940.2385u     15.3771u      4.7999p      1.5077m
  gmb         61.1735u     29.8433u    116.2117u    114.1334p      4.4601p
  cdtot        1.2938f      3.0771f      1.2430f      1.0905f     12.6467f
  cgtot        1.7515f      2.0164f      1.7651f      1.1660f      7.0912f
  cstot        2.7889f      2.8670f      2.5338f      1.4667f     10.9559f
  cbtot        2.6258f      2.6353f      2.3831f      2.2660f      9.8587f
  cgs          1.3767f      1.0179f      1.2452f    364.3408a      3.6798f
  cgd        321.5684a    917.8465a    362.5963a    364.3010a      3.4926f



 subckt     xdriver0.x   xdriver0.x   xdriver1.x   xdriver1.x   xdriver1.x
 element  167:mn16     167:mp11     168:mn16     168:mp11     169:mn16    
 model      0:nch.12     0:pch.8      0:nch.12     0:pch.8      0:nch.12  
 region         Linear       Cutoff       Cutoff       Linear       Linear
  id          24.7381p    -21.1374p     12.3397p    -15.9525p     24.7381p
  ibs       -7.599e-27    4.921e-27   -4.344e-27    3.423e-27   -7.599e-27
  ibd       -2.871e-24    652.8482a    -13.3389f    5.600e-24   -2.871e-24
  vgs          1.8000     -10.5938n     12.7437n     -1.8000       1.8000 
  vds         12.7437n     -1.8000       1.8000     -10.5936n     12.7437n
  vbs          0.           0.           0.           0.           0.     
  vth        540.0186m   -501.7911m    534.6964m   -509.8923m    540.0186m
  vdsat      482.8088m    -41.9035m     41.5704m   -715.0941m    482.8088m
  vod          1.2600     501.7910m   -534.6964m     -1.2901       1.2600 
  beta         2.3978m      1.9461m      3.0678m      1.5368m      2.3978m
  gam eff    991.8421m    669.0853m    991.8421m    669.0853m    991.8421m
  gm           8.4134p    568.5806p    352.6830p      6.6812p      8.4134p
  gds          1.9515m     17.2349p      4.7999p      1.5077m      1.9515m
  gmb          4.9049p    205.7282p    114.1334p      4.4600p      4.9049p
  cdtot        3.3927f      3.8503f      1.0905f     12.6467f      3.3927f
  cgtot        2.0588f      3.7210f      1.1660f      7.0912f      2.0588f
  cstot        2.9697f      5.3341f      1.4667f     10.9559f      2.9697f
  cbtot        2.6721f      8.2608f      2.2660f      9.8587f      2.6721f
  cgs        973.7251a      1.1612f    364.3408a      3.6798f    973.7251a
  cgd          1.0150f      1.1611f    364.3010a      3.4926f      1.0150f



 subckt     xdriver1.x   xdriver2.x   xdriver2.x   xdriver2.x   xdriver2.x
 element  169:mp11     170:mn16     170:mp11     171:mn16     171:mp11    
 model      0:pch.8      0:nch.12     0:pch.8      0:nch.12     0:pch.8   
 region         Cutoff       Cutoff       Linear       Linear       Cutoff
  id         -21.1374p     12.3397p    -15.9536p     24.7381p    -21.1374p
  ibs        4.921e-27   -4.344e-27    3.423e-27   -7.599e-27    4.921e-27
  ibd        652.8482a    -13.3389f    5.600e-24   -2.871e-24    652.8482a
  vgs        -10.5936n     12.7437n     -1.8000       1.8000     -10.5943n
  vds         -1.8000       1.8000     -10.5943n     12.7437n     -1.8000 
  vbs          0.           0.           0.           0.           0.     
  vth       -501.7911m    534.6964m   -509.8923m    540.0186m   -501.7911m
  vdsat      -41.9035m     41.5704m   -715.0941m    482.8088m    -41.9035m
  vod        501.7910m   -534.6964m     -1.2901       1.2600     501.7910m
  beta         1.9461m      3.0678m      1.5368m      2.3978m      1.9461m
  gam eff    669.0853m    991.8421m    669.0853m    991.8421m    669.0853m
  gm         568.5806p    352.6830p      6.6817p      8.4134p    568.5806p
  gds         17.2349p      4.7999p      1.5077m      1.9515m     17.2349p
  gmb        205.7282p    114.1334p      4.4603p      4.9049p    205.7282p
  cdtot        3.8503f      1.0905f     12.6467f      3.3927f      3.8503f
  cgtot        3.7210f      1.1660f      7.0912f      2.0588f      3.7210f
  cstot        5.3341f      1.4667f     10.9559f      2.9697f      5.3341f
  cbtot        8.2608f      2.2660f      9.8587f      2.6721f      8.2608f
  cgs          1.1612f    364.3408a      3.6798f    973.7251a      1.1612f
  cgd          1.1611f    364.3010a      3.4926f      1.0150f      1.1611f



 subckt     xdriver3.x   xdriver3.x   xdriver3.x   xdriver3.x   xdecoder2t
 element  172:mn16     172:mp11     173:mn16     173:mp11     174:mn16    
 model      0:nch.12     0:pch.8      0:nch.12     0:pch.8      0:nch.12  
 region         Cutoff       Linear       Linear       Cutoff       Cutoff
  id          12.3397p    -15.9528p     24.7381p    -21.1374p     12.3398p
  ibs       -4.344e-27    3.423e-27   -7.599e-27    4.921e-27   -4.344e-27
  ibd        -13.3389f    5.600e-24   -2.871e-24    652.8482a    -13.3390f
  vgs         12.7437n     -1.8000       1.8000     -10.5938n    172.7441n
  vds          1.8000     -10.5938n     12.7437n     -1.8000       1.8000 
  vbs          0.           0.           0.           0.           0.     
  vth        534.6964m   -509.8923m    540.0186m   -501.7911m    534.6964m
  vdsat       41.5704m   -715.0941m    482.8088m    -41.9035m     41.5704m
  vod       -534.6964m     -1.2901       1.2600     501.7910m   -534.6962m
  beta         3.0678m      1.5368m      2.3978m      1.9461m      3.0678m
  gam eff    991.8421m    669.0853m    991.8421m    669.0853m    991.8421m
  gm         352.6830p      6.6814p      8.4134p    568.5806p    352.6846p
  gds          4.7999p      1.5077m      1.9515m     17.2349p      4.7999p
  gmb        114.1334p      4.4601p      4.9049p    205.7282p    114.1339p
  cdtot        1.0905f     12.6467f      3.3927f      3.8503f      1.0905f
  cgtot        1.1660f      7.0912f      2.0588f      3.7210f      1.1660f
  cstot        1.4667f     10.9559f      2.9697f      5.3341f      1.4667f
  cbtot        2.2660f      9.8587f      2.6721f      8.2608f      2.2660f
  cgs        364.3408a      3.6798f    973.7251a      1.1612f    364.3408a
  cgd        364.3010a      3.4926f      1.0150f      1.1611f    364.3010a



 subckt     xdecoder2t   xdecoder2t   xdecoder2t   xdecoder2t   xdecoder2t
 element  174:mp11     175:mn16     175:mp11     176:mn16     176:mp11    
 model      0:pch.8      0:nch.12     0:pch.8      0:nch.12     0:pch.8   
 region         Linear       Linear     Saturati     Saturati       Linear
  id         -15.9532p      5.9865u     -5.9864u     88.8604u    -88.8857u
  ibs        3.423e-27   -1.839e-21    1.284e-21   -2.723e-20    1.906e-20
  ibd        5.600e-24   -8.611e-19    130.7557p    -25.3168n     13.6068a
  vgs         -1.8000       1.2808    -519.2196m    781.5693m     -1.0184 
  vds        -10.5941n      4.1324m     -1.7959       1.6668    -133.2119m
  vbs          0.           0.           0.           0.           0.     
  vth       -509.8923m    540.0089m   -501.8105m    535.1261m   -509.3055m
  vdsat     -715.0941m    337.1192m    -78.2475m    174.1568m   -363.0774m
  vod         -1.2901     740.7714m    -17.4092m    246.4432m   -509.1252m
  beta         1.5368m      2.7474m      1.9365m      2.9992m      1.8111m
  gam eff    669.0853m    991.8430m    669.0853m    991.8561m    669.0855m
  gm           6.6816p      5.1913u    100.2518u    459.3413u    171.2623u
  gds          1.5077m      1.4427m      1.3304u     11.9607u    549.1682u
  gmb          4.4602p      2.0411u     32.7784u    130.5516u     66.7170u
  cdtot       12.6467f      3.3324f      3.8519f      1.1034f      9.1423f
  cgtot        7.0912f      2.0370f      4.8840f      1.7726f      6.7363f
  cstot       10.9559f      2.9374f      7.5585f      2.5346f     10.0495f
  cbtot        9.8587f      2.6702f      8.1022f      2.2417f      9.5221f
  cgs          3.6798f    966.5053a      3.0464f      1.2487f      4.2753f
  cgd          3.4926f    995.3051a      1.1521f    362.3250a      2.4418f



 subckt     xdecoder2t   xdecoder2t   xdecoder2t   xdecoder2t   xdecoder2t
 element  177:mn16     177:mp11     178:mn16     178:mp11     179:mn16    
 model      0:nch.12     0:pch.8      0:nch.12     0:pch.8      0:nch.12  
 region         Linear       Cutoff       Linear       Cutoff       Linear
  id         200.0511p   -196.4452p     24.7381p    -21.1375p     24.7381p
  ibs       -6.146e-26    4.253e-26   -7.599e-27    4.921e-27   -7.599e-27
  ibd       -2.393e-23      5.9538f   -2.871e-24    652.8487a   -2.871e-24
  vgs          1.7170     -83.0083m      1.8000     -40.2624n      1.8000 
  vds        106.2027n     -1.8000      12.7437n     -1.8000      12.7437n
  vbs          0.           0.           0.           0.           0.     
  vth        540.0186m   -501.7911m    540.0186m   -501.7911m    540.0186m
  vdsat      459.6347m    -41.9053m    482.8088m    -41.9035m    482.8088m
  vod          1.1770     418.7827m      1.2600     501.7910m      1.2600 
  beta         2.4564m      1.9461m      2.3978m      1.9461m      2.3978m
  gam eff    991.8421m    669.0853m    991.8421m    669.0853m    991.8421m
  gm          77.9889p      5.2639n      8.4134p    568.5810p      8.4134p
  gds          1.8934m    139.0835p      1.9515m     17.2349p      1.9515m
  gmb         42.2875p      1.8662n      4.9049p    205.7283p      4.9049p
  cdtot        3.3875f      3.8503f      3.3927f      3.8503f      3.3927f
  cgtot        2.0562f      3.6686f      2.0588f      3.7210f      2.0588f
  cstot        2.9663f      5.3342f      2.9697f      5.3341f      2.9697f
  cbtot        2.6722f      8.2084f      2.6721f      8.2608f      2.6721f
  cgs        972.3110a      1.1612f    973.7251a      1.1612f    973.7251a
  cgd          1.0132f      1.1611f      1.0150f      1.1611f      1.0150f



 subckt     xdecoder2t   xdecoder2t   xdecoder2t   xdecoder2t   xdecoder2t
 element  179:mp11     180:mn16     180:mp11     181:mn16     181:mp11    
 model      0:pch.8      0:nch.12     0:pch.8      0:nch.12     0:pch.8   
 region         Cutoff       Linear       Cutoff       Linear       Cutoff
  id         -21.1374p     24.7381p    -21.1375p     24.7381p    -21.1374p
  ibs        4.921e-27   -7.599e-27    4.921e-27   -7.599e-27    4.921e-27
  ibd        652.8481a   -2.871e-24    652.8487a   -2.871e-24    652.8481a
  vgs         -7.6042n      1.8000     -40.2624n      1.8000      -7.1831n
  vds         -1.8000      12.7437n     -1.8000      12.7437n     -1.8000 
  vbs          0.           0.           0.           0.           0.     
  vth       -501.7911m    540.0186m   -501.7911m    540.0186m   -501.7911m
  vdsat      -41.9035m    482.8088m    -41.9035m    482.8088m    -41.9035m
  vod        501.7910m      1.2600     501.7910m      1.2600     501.7910m
  beta         1.9461m      2.3978m      1.9461m      2.3978m      1.9461m
  gam eff    669.0853m    991.8421m    669.0853m    991.8421m    669.0853m
  gm         568.5805p      8.4134p    568.5810p      8.4134p    568.5805p
  gds         17.2349p      1.9515m     17.2349p      1.9515m     17.2349p
  gmb        205.7282p      4.9049p    205.7283p      4.9049p    205.7282p
  cdtot        3.8503f      3.3927f      3.8503f      3.3927f      3.8503f
  cgtot        3.7210f      2.0588f      3.7210f      2.0588f      3.7210f
  cstot        5.3341f      2.9697f      5.3341f      2.9697f      5.3341f
  cbtot        8.2608f      2.6721f      8.2608f      2.6721f      8.2608f
  cgs          1.1612f    973.7251a      1.1612f    973.7251a      1.1612f
  cgd          1.1611f      1.0150f      1.1611f      1.0150f      1.1611f



 ******  
 *** 4x4 nor2x1 dcim_array ***

  ******  transient analysis tnom=  25.000 temp=  27.000 *****
   tread1_delay=  6.9166E-10  targ=  2.0697E-08   trig=  2.0005E-08
   tread1_slew=  5.1664E-11  targ=  2.0721E-08   trig=  2.0670E-08
   tread1_wl_delay=  4.7465E-10  targ=  2.0480E-08   trig=  2.0005E-08
   tread1_se_delay=  4.7729E-10  targ=  2.0482E-08   trig=  2.0005E-08
   tread0_delay=  7.1230E-10  targ=  6.0717E-08   trig=  6.0005E-08
   tread0_slew=  5.5539E-11  targ=  6.0745E-08   trig=  6.0690E-08
   tread0_wl_delay=  4.7376E-10  targ=  6.0479E-08   trig=  6.0005E-08
   tread0_se_delay=  4.7645E-10  targ=  6.0481E-08   trig=  6.0005E-08

          ***** job concluded
1****** HSPICE -- C-2009.09-SP1 32-BIT (Nov 23 2009) winnt ******               
 ******  
 *** 4x4 nor2x1 dcim_array ***

  ******  job statistics summary tnom=  25.000 temp=  27.000 *****

  ******  HSPICE Threads Information  ******

  Command Line Threads Count                  :     1
  Available CPU Count                         :    20
  Actual Model Evaluation(Load) Threads Count :     1
  Actual Solver Threads Count                 :     1


  ******  Circuit Statistics  ******
  # nodes       =    1521 # elements   =     653
  # resistors   =      16 # capacitors =      24 # inductors   =       0
  # mutual_inds =       0 # vccs       =       0 # vcvs        =       0
  # cccs        =       0 # ccvs       =       0 # volt_srcs   =      13
  # curr_srcs   =       0 # diodes     =       0 # bjts        =       0
  # jfets       =       0 # mosfets    =     600 # U elements  =       0
  # T elements  =       0 # W elements =       0 # B elements  =       0
  # S elements  =       0 # P elements =       0 # va device   =       0


  ******  Runtime Statistics (seconds)  ******

  analysis           time    # points   tot. iter  conv.iter
  op point           0.04           1          33
  transient          1.40        7001        2572         909 rev=        38
  readin             0.07
  errchk             0.02
  setup              0.12
  output             0.00


           total memory used         4897  kbytes
           total cpu time            1.65 seconds
           total elapsed time        1.98 seconds
           job started at     17:50:41 09/14/2024
           job ended   at     17:50:43 09/14/2024


  lic: Release hspice token(s) 
